aqu_catunit.ele: written by SWAT+ editor v2.3.0 on 2023-10-17 20:05 for SWAT+ rev.60.5.7
      id  name                   obj_typ  obj_typ_no      bsn_frac      sub_frac      reg_frac  
       1  aqu010                     aqu           1             1       0.00000       0.00000  

       2  aqu020                     aqu           2       0.03195       0.00000       0.00000  
       3  aqu030                     aqu           3       0.00132       0.00000       0.00000  
       4  aqu040                     aqu           4       0.00582       0.00000       0.00000  
       5  aqu050                     aqu           5       0.14849       0.00000       0.00000  
       6  aqu060                     aqu           6       0.00127       0.00000       0.00000  
       7  aqu070                     aqu           7       0.01974       0.00000       0.00000  
       8  aqu080                     aqu           8       0.00654       0.00000       0.00000  
       9  aqu090                     aqu           9       0.11857       0.00000       0.00000  
      10  aqu100                     aqu          10       0.00002       0.00000       0.00000  
      11  aqu110                     aqu          11       0.00040       0.00000       0.00000  
      12  aqu120                     aqu          12       0.01066       0.00000       0.00000  
      13  aqu130                     aqu          13       0.00520       0.00000       0.00000  
      14  aqu140                     aqu          14       0.04950       0.00000       0.00000  
      15  aqu150                     aqu          15       0.00003       0.00000       0.00000  
      16  aqu160                     aqu          16       0.00231       0.00000       0.00000  
      17  aqu170                     aqu          17       0.00057       0.00000       0.00000  
      18  aqu180                     aqu          18       0.00578       0.00000       0.00000  
      19  aqu190                     aqu          19       0.00017       0.00000       0.00000  
      20  aqu200                     aqu          20       0.00636       0.00000       0.00000  
      21  aqu210                     aqu          21       0.00014       0.00000       0.00000  
      22  aqu220                     aqu          22       0.00873       0.00000       0.00000  
      23  aqu230                     aqu          23       0.01291       0.00000       0.00000  
      24  aqu240                     aqu          24       0.00009       0.00000       0.00000  
      25  aqu250                     aqu          25       0.00050       0.00000       0.00000  
      26  aqu260                     aqu          26       0.02461       0.00000       0.00000  
      27  aqu270                     aqu          27       0.00367       0.00000       0.00000  
      28  aqu280                     aqu          28       0.09102       0.00000       0.00000  
      29  aqu290                     aqu          29       0.00003       0.00000       0.00000  
      30  aqu300                     aqu          30       0.00124       0.00000       0.00000  
      31  aqu310                     aqu          31       0.00372       0.00000       0.00000  
      32  aqu320                     aqu          32       0.00076       0.00000       0.00000  
      33  aqu330                     aqu          33       0.00084       0.00000       0.00000  
      34  aqu340                     aqu          34       0.00086       0.00000       0.00000  
      35  aqu350                     aqu          35       0.00060       0.00000       0.00000  
      36  aqu360                     aqu          36       0.03374       0.00000       0.00000  
      37  aqu370                     aqu          37       0.00082       0.00000       0.00000  
      38  aqu380                     aqu          38       0.00035       0.00000       0.00000  
      39  aqu390                     aqu          39       0.00231       0.00000       0.00000  
      40  aqu400                     aqu          40       0.00771       0.00000       0.00000  
      41  aqu410                     aqu          41       0.03498       0.00000       0.00000  
      42  aqu420                     aqu          42       0.00044       0.00000       0.00000  
      43  aqu430                     aqu          43       0.00424       0.00000       0.00000  
      44  aqu440                     aqu          44       0.00218       0.00000       0.00000  
      45  aqu450                     aqu          45       0.00085       0.00000       0.00000  
      46  aqu460                     aqu          46       0.01366       0.00000       0.00000  
      47  aqu470                     aqu          47       0.00143       0.00000       0.00000  
      48  aqu480                     aqu          48       0.02994       0.00000       0.00000  
      49  aqu490                     aqu          49       0.00037       0.00000       0.00000  
      50  aqu500                     aqu          50       0.02940       0.00000       0.00000  
      51  aqu510                     aqu          51       0.00004       0.00000       0.00000  
      52  aqu520                     aqu          52       0.00205       0.00000       0.00000  
      53  aqu530                     aqu          53       0.01772       0.00000       0.00000  
      54  aqu540                     aqu          54       0.00102       0.00000       0.00000  
      55  aqu550                     aqu          55       0.00832       0.00000       0.00000  
      56  aqu560                     aqu          56       0.00101       0.00000       0.00000  
      57  aqu570                     aqu          57       0.01025       0.00000       0.00000  
      58  aqu580                     aqu          58       0.00076       0.00000       0.00000  
      59  aqu590                     aqu          59       0.00972       0.00000       0.00000  
      60  aqu600                     aqu          60       0.00006       0.00000       0.00000  
      61  aqu610                     aqu          61       0.00546       0.00000       0.00000  
      62  aqu620                     aqu          62       0.00190       0.00000       0.00000  
      63  aqu630                     aqu          63       0.00346       0.00000       0.00000  
      64  aqu640                     aqu          64       0.02823       0.00000       0.00000  
      65  aqu650                     aqu          65       0.00102       0.00000       0.00000  
      66  aqu660                     aqu          66       0.05714       0.00000       0.00000  
      67  aqu670                     aqu          67       0.00003       0.00000       0.00000  
      68  aqu680                     aqu          68       0.01120       0.00000       0.00000  
      69  aqu690                     aqu          69       0.00286       0.00000       0.00000  
      70  aqu700                     aqu          70       0.03469       0.00000       0.00000  
      71  aqu710                     aqu          71       0.00157       0.00000       0.00000  
      72  aqu720                     aqu          72       0.03003       0.00000       0.00000  
      73  aqu730                     aqu          73       0.00144       0.00000       0.00000  
      74  aqu740                     aqu          74       0.02234       0.00000       0.00000  
      75  aqu750                     aqu          75       0.00003       0.00000       0.00000  
      76  aqu760                     aqu          76       0.01473       0.00000       0.00000  
      77  aqu770                     aqu          77       0.00001       0.00000       0.00000  
      78  aqu_deep051                aqu          78       0.73296       0.00000       0.00000  
      79  aqu_deep062                aqu          79       0.05827       0.00000       0.00000  
      80  aqu_deep077                aqu          80       0.20877       0.00000       0.00000  
