aquifer.con: written by SWAT+ editor v2.3.0 on 2023-10-17 20:05 for SWAT+ rev.60.5.7
      id  name                gis_id          area           lat           lon          elev       aqu               wst       cst      ovfl      rule   out_tot       obj_typ    obj_id       hyd_typ          frac  
       1  aqu010                  10            10      39.40298      -0.33760       0.95900         1       s39280n462w         0         0         0         1           sdc         1           tot       1.00000           aqu        78           rhg       1.00000  

       2  aqu020                  20      40.34250      39.39812      -0.33621       0.89700         2       s39280n462w         0         0         0         2           sdc        55           tot       1.00000           aqu        78           rhg       1.00000  
       3  aqu030                  30       1.66250      39.38160      -0.33460       1.15000         3       s39280n462w         0         0         0         2           sdc        56           tot       1.00000           aqu        78           rhg       1.00000  
       4  aqu040                  40       7.34250      39.42383      -0.34364       1.16100         4       s39280n462w         0         0         0         2           sdc        77           tot       1.00000           aqu        78           rhg       1.00000  
       5  aqu050                  50     187.47500      39.40302      -0.34054       0.80300         5       s39280n462w         0         0         0         2           sdc         4           tot       1.00000           aqu        78           rhg       1.00000  
       6  aqu060                  60       1.59750      39.42461      -0.34470       0.91200         6       s39280n462w         0         0         0         2           sdc        41           tot       1.00000           aqu        78           rhg       1.00000  
       7  aqu070                  70      24.91750      39.42416      -0.34698       1.58700         7       s39280n462w         0         0         0         2           sdc        41           tot       1.00000           aqu        78           rhg       1.00000  
       8  aqu080                  80       8.26250      39.40162      -0.34306       0.72200         8       s39280n462w         0         0         0         2           sdc         3           tot       1.00000           aqu        78           rhg       1.00000  
       9  aqu090                  90     149.70750      39.40798      -0.34685       0.66200         9       s39280n462w         0         0         0         2           sdc         3           tot       1.00000           aqu        78           rhg       1.00000  
      10  aqu100                 100       0.02250      39.38546      -0.33753       0.70300        10       s39280n462w         0         0         0         2           sdc        40           tot       1.00000           aqu        78           rhg       1.00000  
      11  aqu110                 110       0.50000      39.42519      -0.35118       1.96300        11       s39280n462w         0         0         0         2           sdc        53           tot       1.00000           aqu        78           rhg       1.00000  
      12  aqu120                 120      13.45750      39.42682      -0.34955       2.44200        12       s39280n462w         0         0         0         2           sdc        53           tot       1.00000           aqu        78           rhg       1.00000  
      13  aqu130                 130       6.57000      39.40759      -0.34946       0.97000        13       s39280n462w         0         0         0         2           sdc        45           tot       1.00000           aqu        78           rhg       1.00000  
      14  aqu140                 140      62.50250      39.41086      -0.35150       1.03600        14       s39280n462w         0         0         0         2           sdc        45           tot       1.00000           aqu        78           rhg       1.00000  
      15  aqu150                 150       0.03250      39.39330      -0.34498       0.64800        15       s39280n462w         0         0         0         2           sdc        44           tot       1.00000           aqu        78           rhg       1.00000  
      16  aqu160                 160       2.91250      39.42268      -0.35157       1.58500        16       s39280n462w         0         0         0         2           sdc        51           tot       1.00000           aqu        78           rhg       1.00000  
      17  aqu170                 170       0.72250      39.41989      -0.35315       0.77500        17       s39280n462w         0         0         0         2           sdc        50           tot       1.00000           aqu        78           rhg       1.00000  
      18  aqu180                 180       7.29250      39.41977      -0.35418       1.29400        18       s39280n462w         0         0         0         2           sdc        50           tot       1.00000           aqu        78           rhg       1.00000  
      19  aqu190                 190       0.21500      39.41712      -0.35320       0.92900        19       s39280n462w         0         0         0         2           sdc        48           tot       1.00000           aqu        78           rhg       1.00000  
      20  aqu200                 200       8.02500      39.41834      -0.35575       1.24100        20       s39280n462w         0         0         0         2           sdc        48           tot       1.00000           aqu        78           rhg       1.00000  
      21  aqu210                 210       0.17750      39.41596      -0.35321       0.57800        21       s39280n462w         0         0         0         2           sdc        47           tot       1.00000           aqu        78           rhg       1.00000  
      22  aqu220                 220      11.02750      39.41707      -0.35721       1.30000        22       s39280n462w         0         0         0         2           sdc        49           tot       1.00000           aqu        78           rhg       1.00000  
      23  aqu230                 230      16.30000      39.41581      -0.35994       1.34900        23       s39280n462w         0         0         0         2           sdc        49           tot       1.00000           aqu        78           rhg       1.00000  
      24  aqu240                 240       0.11500      39.41539      -0.35360       0.88100        24       s39280n462w         0         0         0         2           sdc        47           tot       1.00000           aqu        78           rhg       1.00000  
      25  aqu250                 250       0.62750      39.41366      -0.35324       0.67000        25       s39280n462w         0         0         0         2           sdc        46           tot       1.00000           aqu        78           rhg       1.00000  
      26  aqu260                 260      31.07250      39.41361      -0.35895       1.54900        26       s39280n462w         0         0         0         2           sdc        46           tot       1.00000           aqu        78           rhg       1.00000  
      27  aqu270                 270       4.63750      39.40102      -0.35079       0.78300        27       s39280n462w         0         0         0         2           sdc         5           tot       1.00000           aqu        78           rhg       1.00000  
      28  aqu280                 280     114.91750      39.40503      -0.35619       0.74500        28       s39280n462w         0         0         0         2           sdc         5           tot       1.00000           aqu        78           rhg       1.00000  
      29  aqu290                 290       0.03250      39.39322      -0.34516       0.62500        29       s39280n462w         0         0         0         2           sdc        44           tot       1.00000           aqu        78           rhg       1.00000  
      30  aqu300                 300       1.56500      39.39050      -0.34294       0.60000        30       s39280n462w         0         0         0         2           sdc        43           tot       1.00000           aqu        78           rhg       1.00000  
      31  aqu310                 310       4.69250      39.39060      -0.34369       0.68200        31       s39280n462w         0         0         0         2           sdc        43           tot       1.00000           aqu        78           rhg       1.00000  
      32  aqu320                 320       0.95750      39.38671      -0.33923       0.99200        32       s39280n462w         0         0         0         2           sdc        40           tot       1.00000           aqu        78           rhg       1.00000  
      33  aqu330                 330       1.06000      39.38380      -0.33663       0.56200        33       s39280n462w         0         0         0         2           sdc         4           tot       1.00000           aqu        78           rhg       1.00000  
      34  aqu340                 340       1.08500      39.38115      -0.33502       1.24300        34       s39280n462w         0         0         0         2           sdc        56           tot       1.00000           aqu        78           rhg       1.00000  
      35  aqu350                 350       0.76250      39.37891      -0.33384       1.14400        35       s39280n462w         0         0         0         2           sdc        57           tot       1.00000           aqu        78           rhg       1.00000  
      36  aqu360                 360      42.59500      39.38055      -0.33698       0.50700        36       s39280n462w         0         0         0         2           sdc        57           tot       1.00000           aqu        78           rhg       1.00000  
      37  aqu370                 370       1.03000      39.37549      -0.33282       1.08100        37       s39280n462w         0         0         0         2           sdc        58           tot       1.00000           aqu        78           rhg       1.00000  
      38  aqu380                 380       0.44500      39.41417      -0.36592       2.19900        38       s39280n462w         0         0         0         2           sdc        76           tot       1.00000           aqu        78           rhg       1.00000  
      39  aqu390                 390       2.92250      39.41425      -0.36682       2.05600        39       s39280n462w         0         0         0         2           sdc        76           tot       1.00000           aqu        78           rhg       1.00000  
      40  aqu400                 400       9.73750      39.39786      -0.35280       0.77300        40       s39280n462w         0         0         0         2           sdc        67           tot       1.00000           aqu        78           rhg       1.00000  
      41  aqu410                 410      44.16250      39.38892      -0.34583       0.02300        41       s39280n462w         0         0         0         2           sdc        67           tot       1.00000           aqu        78           rhg       1.00000  
      42  aqu420                 420       0.55750      39.38253      -0.33982       0.86300        42       s39280n462w         0         0         0         2           sdc        68           tot       1.00000           aqu        78           rhg       1.00000  
      43  aqu430                 430       5.35000      39.38235      -0.34121       0.27000        43       s39280n462w         0         0         0         2           sdc        68           tot       1.00000           aqu        78           rhg       1.00000  
      44  aqu440                 440       2.75250      39.37706      -0.33681       0.20800        44       s39280n462w         0         0         0         2           sdc        58           tot       1.00000           aqu        78           rhg       1.00000  
      45  aqu450                 450       1.07250      39.37067      -0.33142       1.04700        45       s39280n462w         0         0         0         2           sdc        59           tot       1.00000           aqu        78           rhg       1.00000  
      46  aqu460                 460      17.24750      39.37217      -0.33376       0.52200        46       s39280n462w         0         0         0         2           sdc        59           tot       1.00000           aqu        78           rhg       1.00000  
      47  aqu470                 470       1.80000      39.36399      -0.32987       1.07100        47       s39280n462w         0         0         0         2           sdc        60           tot       1.00000           aqu        78           rhg       1.00000  
      48  aqu480                 480      37.79750      39.36432      -0.33214       0.10500        48       s39280n462w         0         0         0         2           sdc        60           tot       1.00000           aqu        78           rhg       1.00000  
      49  aqu490                 490       0.46500      39.35879      -0.32928       0.22200        49       s39280n462w         0         0         0         2           sdc        61           tot       1.00000           aqu        78           rhg       1.00000  
      50  aqu500                 500      37.12250      39.36867      -0.33013       1.46000        50       s39280n462w         0         0         0         2           sdc        61           tot       1.00000           aqu        78           rhg       1.00000  
      51  aqu510                 510       0.04500      39.35803      -0.32928       0.92300        51       s39280n462w         0         0         0         1           aqu        78           rhg       1.00000  
      52  aqu520                 520       2.58500      39.38780      -0.34729       0.42700        52       s39280n462w         0         0         0         2           sdc        65           tot       1.00000           aqu        79           rhg       1.00000  
      53  aqu530                 530      22.37500      39.38710      -0.34814       0.35100        53       s39280n462w         0         0         0         2           sdc        65           tot       1.00000           aqu        79           rhg       1.00000  
      54  aqu540                 540       1.28500      39.38108      -0.34196       0.76800        54       s39280n462w         0         0         0         2           sdc        64           tot       1.00000           aqu        79           rhg       1.00000  
      55  aqu550                 550      10.50250      39.38092      -0.34313       0.00300        55       s39280n462w         0         0         0         2           sdc        64           tot       1.00000           aqu        79           rhg       1.00000  
      56  aqu560                 560       1.27000      39.37616      -0.33924       0.01600        56       s39280n462w         0         0         0         2           sdc        63           tot       1.00000           aqu        79           rhg       1.00000  
      57  aqu570                 570      12.94750      39.37783      -0.33904       0.18800        57       s39280n462w         0         0         0         2           sdc        63           tot       1.00000           aqu        79           rhg       1.00000  
      58  aqu580                 580       0.95500      39.37191      -0.33685       0.08000        58       s39280n462w         0         0         0         2           sdc        62           tot       1.00000           aqu        79           rhg       1.00000  
      59  aqu590                 590      12.27250      39.37407      -0.33897       0.00300        59       s39280n462w         0         0         0         2           sdc        62           tot       1.00000           aqu        79           rhg       1.00000  
      60  aqu600                 600       0.07250      39.37002      -0.33578       0.37800        60       s39280n462w         0         0         0         2           sdc        13           tot       1.00000           aqu        79           rhg       1.00000  
      61  aqu610                 610       6.89750      39.37174      -0.33569       0.18300        61       s39280n462w         0         0         0         2           sdc        13           tot       1.00000           aqu        79           rhg       1.00000  
      62  aqu620                 620       2.40250      39.36444      -0.33422      -0.12200        62       s39280n462w         0         0         0         1           aqu        79           rhg       1.00000  
      63  aqu630                 630       4.36750      39.40252      -0.36178       0.99700        63       s39280n462w         0         0         0         2           sdc        73           tot       1.00000           aqu        80           rhg       1.00000  
      64  aqu640                 640      35.64750      39.40101      -0.36220       1.08400        64       s39280n462w         0         0         0         2           sdc        73           tot       1.00000           aqu        80           rhg       1.00000  
      65  aqu650                 650       1.28500      39.39253      -0.35537       0.70800        65       s39280n462w         0         0         0         2           sdc        74           tot       1.00000           aqu        80           rhg       1.00000  
      66  aqu660                 660      72.15000      39.39997      -0.35806       1.00300        66       s39280n462w         0         0         0         2           sdc        74           tot       1.00000           aqu        80           rhg       1.00000  
      67  aqu670                 670       0.04000      39.39021      -0.35377       0.79900        67       s39280n462w         0         0         0         2           sdc        72           tot       1.00000           aqu        80           rhg       1.00000  
      68  aqu680                 680      14.13750      39.39232      -0.35681       0.81200        68       s39280n462w         0         0         0         2           sdc        72           tot       1.00000           aqu        80           rhg       1.00000  
      69  aqu690                 690       3.60500      39.38389      -0.34704       0.25300        69       s39280n462w         0         0         0         2           sdc        71           tot       1.00000           aqu        80           rhg       1.00000  
      70  aqu700                 700      43.79750      39.38250      -0.34777       0.28900        70       s39280n462w         0         0         0         2           sdc        71           tot       1.00000           aqu        80           rhg       1.00000  
      71  aqu710                 710       1.98000      39.37284      -0.33925      -0.17000        71       s39280n462w         0         0         0         2           sdc        69           tot       1.00000           aqu        80           rhg       1.00000  
      72  aqu720                 720      37.91750      39.37217      -0.34127      -0.12400        72       s39280n462w         0         0         0         2           sdc        69           tot       1.00000           aqu        80           rhg       1.00000  
      73  aqu730                 730       1.82250      39.36357      -0.33691      -0.15000        73       s39280n462w         0         0         0         2           sdc        70           tot       1.00000           aqu        80           rhg       1.00000  
      74  aqu740                 740      28.20000      39.36420      -0.33559      -0.09500        74       s39280n462w         0         0         0         2           sdc        70           tot       1.00000           aqu        80           rhg       1.00000  
      75  aqu750                 750       0.03500      39.35886      -0.33612       0.87500        75       s39280n462w         0         0         0         2           sdc        15           tot       1.00000           aqu        80           rhg       1.00000  
      76  aqu760                 760      18.59250      39.36396      -0.33824      -0.38500        76       s39280n462w         0         0         0         2           sdc        15           tot       1.00000           aqu        80           rhg       1.00000  
      77  aqu770                 770       0.01250      39.35873      -0.33607       0.66900        77       s39280n462w         0         0         0         1           aqu        80           rhg       1.00000  
      78  aqu_deep051             51     925.42750      39.40079      -0.34533       0.83614        78       s39280n462w         0         0         0         0  
      79  aqu_deep062             62      73.56500      39.37975      -0.34222       0.18406        79       s39280n462w         0         0         0         0  
      80  aqu_deep077             77     263.59000      39.38575      -0.35023       0.47894        80       s39280n462w         0         0         0         0  
