chandeg.con: written by SWAT+ editor v2.3.0 on 2023-10-17 20:05 for SWAT+ rev.60.5.7
      id  name                gis_id          area           lat           lon          elev      lcha               wst       cst      ovfl      rule   out_tot       obj_typ    obj_id       hyd_typ          frac  
       1  cha01                    1             1      39.36943      -0.33075             0         1       s39280n462w         0         0         0         0           sdc        1           tot       1.00000  