ls_unit.def: written by SWAT+ editor v2.3.0 on 2023-10-17 20:05 for SWAT+ rev.60.5.7
1
      id              name          area  elem_tot  elements  
       1            rtu010            10         1         1  

       2            rtu020       7.34250         2         7        -8  
       3            rtu030       0.02250         2        19       -20  
       4            rtu040       1.08500         2        62       -63  
       5            rtu050       0.03250         2        52       -53  
       6            rtu060       0.44500         2        70       -71  
       7            rtu070       7.29250         1        33  
       8            rtu080       8.02500         1        36  
       9            rtu090      11.02750         1        39  
      10            rtu100      16.30000         2        40       -41  
      11            rtu110      31.07250         2        46       -47  
      12            rtu120       2.92250         1        72  
      13            rtu130       2.40250         2       116      -117  
      14            rtu140      72.15000         2       124      -125  
      15            rtu150       0.01250         2       144      -145  
      16            rtu160      13.45750         2        22       -23  
      17            rtu170      40.34250         2         3        -4  
      18            rtu180      42.59500         2        66       -67  
      19            rtu190      17.24750         2        85       -86  
      20            rtu200      37.79750         2        89       -90  
      21            rtu210      62.50250         2        26       -27  
      22            rtu220     114.91750         2        50       -51  
      23            rtu230       4.69250         2        56       -57  
      24            rtu240      44.16250         2        75       -76  
      25            rtu250     149.70750         2        17       -18  
      26            rtu260       5.35000         2        79       -80  
      27            rtu270      12.94750         2       106      -107  
      28            rtu280       6.89750         2       114      -115  
      29            rtu290      22.37500         2        98       -99  
      30            rtu300      10.50250         2       102      -103  
      31            rtu310      12.27250         2       110      -111  
      32            rtu320      35.64750         2       120      -121  
      33            rtu330      14.13750         1       128  
      34            rtu340      43.79750         2       131      -132  
      35            rtu350      37.91750         2       135      -136  
      36            rtu360      18.59250         1       143  
      37            rtu370      28.20000         2       139      -140  
      38            rtu380      24.91750         2        13       -14  
      39            rtu390       0.50000         1        21  
      40            rtu400       1.06000         2        60       -61  
      41            rtu410       8.26250         2        15       -16  
      42            rtu420       1.59750         2        11       -12  
      43            rtu430       0.95750         2        58       -59  
      44            rtu440       1.56500         2        54       -55  
      45            rtu450       0.03250         1        28  
      46            rtu460       4.63750         2        48       -49  
      47            rtu470       0.62750         2        44       -45  
      48            rtu480       0.17750         2        37       -38  
      49            rtu490       0.11500         2        42       -43  
      50            rtu500       0.21500         2        34       -35  
      51            rtu510       0.72250         2        31       -32  
      52            rtu520       2.91250         2        29       -30  
      53            rtu530       6.57000         2        24       -25  
      54            rtu540       7.73500         2         1        -2  
      55            rtu550       1.66250         2         5        -6  
      56            rtu560       0.76250         2        64       -65  
      57            rtu570       1.03000         2        68       -69  
      58            rtu580       1.07250         2        83       -84  
      59            rtu590       1.80000         2        87       -88  
      60            rtu600       0.46500         2        91       -92  
      61            rtu610       0.04500         1        95  
      62            rtu620       0.07250         2       112      -113  
      63            rtu630       0.95500         2       108      -109  
      64            rtu640       1.27000         2       104      -105  
      65            rtu650       1.28500         2       100      -101  
      66            rtu660       2.58500         2        96       -97  
      67            rtu670       0.55750         2        77       -78  
      68            rtu680       2.75250         2        81       -82  
      69            rtu690       1.82250         2       137      -138  
      70            rtu700       0.03500         2       141      -142  
      71            rtu710       1.98000         2       133      -134  
      72            rtu720       3.60500         2       129      -130  
      73            rtu730       1.28500         2       122      -123  
      74            rtu740       0.04000         2       126      -127  
      75            rtu750       4.36750         2       118      -119  
      76            rtu760       9.73750         2        73       -74  
      77            rtu770     187.47500         2         9       -10  
