pcp.cli: Precipitation file names - file written by SWAT+ editor 2023-10-17 13:41:00.642372
filename
benifaio_PCP.pcp
