rout_unit.ele: written by SWAT+ editor v2.3.0 on 2023-10-17 20:05 for SWAT+ rev.60.5.7
      id  name                   obj_typ    obj_id          frac               dlr  
       1  hru001                     hru         1             1                 0  

       2  hru002                     hru         2     7.5942E-1                 0  
       3  hru003                     hru         3     3.3991E-2                 0  
       4  hru004                     hru         4     9.6601E-1                 0  
       5  hru005                     hru         5     4.2623E-2                 0  
       6  hru006                     hru         6     9.5738E-1                 0  
       7  hru007                     hru         7     3.9871E-2                 0  
       8  hru008                     hru         8     9.6013E-1                 0  
       9  hru009                     hru         9     1.1556E-2                 0  
      10  hru010                     hru        10     9.8844E-1                 0  
      11  hru011                     hru        11     1.7350E-1                 0  
      12  hru012                     hru        12     8.2650E-1                 0  
      13  hru013                     hru        13     9.9618E-1                 0  
      14  hru014                     hru        14     3.8245E-3                 0  
      15  hru015                     hru        15     7.5976E-1                 0  
      16  hru016                     hru        16     2.4024E-1                 0  
      17  hru017                     hru        17     9.3182E-3                 0  
      18  hru018                     hru        18     9.9068E-1                 0  
      19  hru019                     hru        19     3.3333E-1                 0  
      20  hru020                     hru        20     6.6667E-1                 0  
      21  hru021                     hru        21     1.0000E+0                 0  
      22  hru022                     hru        22     9.8857E-1                 0  
      23  hru023                     hru        23     1.1431E-2                 0  
      24  hru024                     hru        24     7.9376E-1                 0  
      25  hru025                     hru        25     2.0624E-1                 0  
      26  hru026                     hru        26     9.7456E-1                 0  
      27  hru027                     hru        27     2.5439E-2                 0  
      28  hru028                     hru        28     1.0000E+0                 0  
      29  hru029                     hru        29     9.9910E-1                 0  
      30  hru030                     hru        30     8.9686E-4                 0  
      31  hru031                     hru        31     3.2180E-1                 0  
      32  hru032                     hru        32     6.7820E-1                 0  
      33  hru033                     hru        33     1.0000E+0                 0  
      34  hru034                     hru        34     6.7442E-1                 0  
      35  hru035                     hru        35     3.2558E-1                 0  
      36  hru036                     hru        36     1.0000E+0                 0  
      37  hru037                     hru        37     7.3239E-1                 0  
      38  hru038                     hru        38     2.6761E-1                 0  
      39  hru039                     hru        39     1.0000E+0                 0  
      40  hru040                     hru        40     9.9984E-1                 0  
      41  hru041                     hru        41     1.5516E-4                 0  
      42  hru042                     hru        42     1.3043E-1                 0  
      43  hru043                     hru        43     8.6957E-1                 0  
      44  hru044                     hru        44     6.8526E-1                 0  
      45  hru045                     hru        45     3.1474E-1                 0  
      46  hru046                     hru        46     4.3461E-3                 0  
      47  hru047                     hru        47     9.9565E-1                 0  
      48  hru048                     hru        48     1.4070E-1                 0  
      49  hru049                     hru        49     8.5930E-1                 0  
      50  hru050                     hru        50     9.9019E-1                 0  
      51  hru051                     hru        51     9.8114E-3                 0  
      52  hru052                     hru        52     9.2308E-1                 0  
      53  hru053                     hru        53     7.6923E-2                 0  
      54  hru054                     hru        54     9.4089E-1                 0  
      55  hru055                     hru        55     5.9105E-2                 0  
      56  hru056                     hru        56     9.4246E-1                 0  
      57  hru057                     hru        57     5.7539E-2                 0  
      58  hru058                     hru        58     9.7911E-1                 0  
      59  hru059                     hru        59     2.0888E-2                 0  
      60  hru060                     hru        60     9.2217E-1                 0  
      61  hru061                     hru        61     7.7830E-2                 0  
      62  hru062                     hru        62     7.1429E-2                 0  
      63  hru063                     hru        63     9.2857E-1                 0  
      64  hru064                     hru        64     9.1475E-1                 0  
      65  hru065                     hru        65     8.5246E-2                 0  
      66  hru066                     hru        66     9.8134E-1                 0  
      67  hru067                     hru        67     1.8664E-2                 0  
      68  hru068                     hru        68     8.1796E-1                 0  
      69  hru069                     hru        69     1.8204E-1                 0  
      70  hru070                     hru        70     7.4713E-1                 0  
      71  hru071                     hru        71     2.5287E-1                 0  
      72  hru072                     hru        72     1.0000E+0                 0  
      73  hru073                     hru        73     9.4403E-1                 0  
      74  hru074                     hru        74     5.5969E-2                 0  
      75  hru075                     hru        75     9.8766E-1                 0  
      76  hru076                     hru        76     1.2341E-2                 0  
      77  hru077                     hru        77     8.4305E-1                 0  
      78  hru078                     hru        78     1.5695E-1                 0  
      79  hru079                     hru        79     9.7757E-1                 0  
      80  hru080                     hru        80     2.2430E-2                 0  
      81  hru081                     hru        81     8.8011E-1                 0  
      82  hru082                     hru        82     1.1989E-1                 0  
      83  hru083                     hru        83     8.1352E-1                 0  
      84  hru084                     hru        84     1.8648E-1                 0  
      85  hru085                     hru        85     9.9986E-1                 0  
      86  hru086                     hru        86     1.4495E-4                 0  
      87  hru087                     hru        87     7.8194E-1                 0  
      88  hru088                     hru        88     2.1806E-1                 0  
      89  hru089                     hru        89     9.8492E-1                 0  
      90  hru090                     hru        90     1.5081E-2                 0  
      91  hru091                     hru        91     9.7531E-1                 0  
      92  hru092                     hru        92     2.4691E-2                 0  
      93  hru093                     hru        93     9.6792E-1                 0  
      94  hru094                     hru        94     3.2080E-2                 0  
      95  hru095                     hru        95     1.0000E+0                 0  
      96  hru096                     hru        96     5.7060E-2                 0  
      97  hru097                     hru        97     9.4294E-1                 0  
      98  hru098                     hru        98     9.8034E-1                 0  
      99  hru099                     hru        99     1.9665E-2                 0  
     100  hru100                     hru       100     8.9105E-1                 0  
     101  hru101                     hru       101     1.0895E-1                 0  
     102  hru102                     hru       102     9.7429E-1                 0  
     103  hru103                     hru       103     2.5708E-2                 0  
     104  hru104                     hru       104     8.8583E-1                 0  
     105  hru105                     hru       105     1.1417E-1                 0  
     106  hru106                     hru       106     9.6640E-1                 0  
     107  hru107                     hru       107     3.3597E-2                 0  
     108  hru108                     hru       108     1.0733E-1                 0  
     109  hru109                     hru       109     8.9267E-1                 0  
     110  hru110                     hru       110     9.6170E-1                 0  
     111  hru111                     hru       111     3.8297E-2                 0  
     112  hru112                     hru       112     8.2759E-1                 0  
     113  hru113                     hru       113     1.7241E-1                 0  
     114  hru114                     hru       114     9.6847E-1                 0  
     115  hru115                     hru       115     3.1533E-2                 0  
     116  hru116                     hru       116     2.6216E-1                 0  
     117  hru117                     hru       117     7.3784E-1                 0  
     118  hru118                     hru       118     9.1624E-1                 0  
     119  hru119                     hru       119     8.3764E-2                 0  
     120  hru120                     hru       120     9.9836E-1                 0  
     121  hru121                     hru       121     1.6374E-3                 0  
     122  hru122                     hru       122     8.9883E-1                 0  
     123  hru123                     hru       123     1.0117E-1                 0  
     124  hru124                     hru       124     9.8451E-1                 0  
     125  hru125                     hru       125     1.5491E-2                 0  
     126  hru126                     hru       126     8.1250E-1                 0  
     127  hru127                     hru       127     1.8750E-1                 0  
     128  hru128                     hru       128     1.0000E+0                 0  
     129  hru129                     hru       129     9.4036E-1                 0  
     130  hru130                     hru       130     5.9639E-2                 0  
     131  hru131                     hru       131     9.9896E-1                 0  
     132  hru132                     hru       132     1.0366E-3                 0  
     133  hru133                     hru       133     8.4470E-1                 0  
     134  hru134                     hru       134     1.5530E-1                 0  
     135  hru135                     hru       135     9.9987E-1                 0  
     136  hru136                     hru       136     1.3290E-4                 0  
     137  hru137                     hru       137     7.6680E-1                 0  
     138  hru138                     hru       138     2.3320E-1                 0  
     139  hru139                     hru       139     9.8147E-1                 0  
     140  hru140                     hru       140     1.8532E-2                 0  
     141  hru141                     hru       141     3.5714E-1                 0  
     142  hru142                     hru       142     6.4286E-1                 0  
     143  hru143                     hru       143     1.0000E+0                 0  
     144  hru144                     hru       144     7.5000E-1                 0  
     145  hru145                     hru       145     2.5000E-1                 0  
