rout_unit.rtu: written by SWAT+ editor v2.3.0 on 2023-10-17 20:05 for SWAT+ rev.60.5.7
      id              name            define               dlr              topo             field  
       1            rtu010            rtu010              null        toportu010            fld010  