slr.cli: Solar radiation file names - file written by SWAT+ editor 2023-10-17 13:41:00.778417
filename
benifaio_SLR.slr
