time.sim: written by SWAT+ editor v2.3.0 on 2023-10-17 20:05 for SWAT+ rev.60.5.7
day_start  yrc_start   day_end   yrc_end      step  
       1      2016         365      2021         0  
