tmp.cli: Temperature file names - file written by SWAT+ editor 2023-10-17 13:41:00.925887
filename
benifaio_TMP.tmp
