wnd.cli: Wind speed file names - file written by SWAT+ editor 2023-10-17 13:41:01.141868
filename
benifaio_WND.wnd
