hmd.cli: Relative humidity file names - file written by SWAT+ editor 2023-10-17 13:41:00.468514
filename
benifaio_HMD.hmd
