hru.con: written by SWAT+ editor v2.3.0 on 2023-10-17 20:05 for SWAT+ rev.60.5.7
      id  name                gis_id          area           lat           lon          elev       hru               wst       cst      ovfl      rule   out_tot  
       1  hru001                   1       10.0000      39.40179      -0.33759       0.34846         1       s39280n462w         0         0         0         0  