hyd-sed-lte.cha: written by SWAT+ editor v2.3.0 on 2023-10-17 20:05 for SWAT+ rev.60.5.7
name                         order            wd            dp           slp           len          mann             k     erod_fact      cov_fact          sinu        eq_slp           d50          clay        carbon        dry_bd      side_slp      bed_load           fps           fpn        n_conc        p_conc         p_bio  description
hydcha01                         1       0.71182       0.08746       0.00036       2.99303       0.05000       1.00000       0.01000       0.00500       1.05000       0.00100      12.00000      50.00000       0.04000       1.00000       0.50000       0.50000       0.00001       0.10000       0.00000       0.00000       0.00000  
hydcha02                         1       0.26921       0.04574       0.00001       0.44036       0.05000       1.00000       0.01000       0.00500       1.05000       0.00100      12.00000      50.00000       0.04000       1.00000       0.50000       0.50000       0.00001       0.10000       0.00000       0.00000       0.00000  
hydcha03                         2       1.86294       0.16609       0.00001       0.01500       0.05000       1.00000       0.01000       0.00500       1.05000       0.00100      12.00000      50.00000       0.04000       1.00000       0.50000       0.50000       0.00001       0.10000       0.00000       0.00000       0.00000  
hydcha04                         3       4.03799       0.27818       0.00081       0.32678       0.05000       1.00000       0.01000       0.00500       1.05000       0.00100      12.00000      50.00000       0.04000       1.00000       0.50000       0.50000       0.00001       0.10000       0.00000       0.00000       0.00000  
hydcha05                         3       1.94396       0.17087       0.00001       0.02414       0.05000       1.00000       0.01000       0.00500       1.05000       0.00100      12.00000      50.00000       0.04000       1.00000       0.50000       0.50000       0.00001       0.10000       0.00000       0.00000       0.00000  
hydcha06                         1       0.05007       0.01490       0.00001       0.25950       0.05000       1.00000       0.01000       0.00500       1.05000       0.00100      12.00000      50.00000       0.04000       1.00000       0.50000       0.50000       0.00001       0.10000       0.00000       0.00000       0.00000  
hydcha07                         1       0.26811       0.04561       0.00329       0.42213       0.05000       1.00000       0.01000       0.00500       1.05000       0.00100      12.00000      50.00000       0.04000       1.00000       0.50000       0.50000       0.00001       0.10000       0.00000       0.00000       0.00000  
hydcha08                         1       0.28396       0.04739       0.00147       0.58355       0.05000       1.00000       0.01000       0.00500       1.05000       0.00100      12.00000      50.00000       0.04000       1.00000       0.50000       0.50000       0.00001       0.10000       0.00000       0.00000       0.00000  
hydcha09                         1       0.34362       0.05382       0.00134       0.71027       0.05000       1.00000       0.01000       0.00500       1.05000       0.00100      12.00000      50.00000       0.04000       1.00000       0.50000       0.50000       0.00001       0.10000       0.00000       0.00000       0.00000  
hydcha10                         1       0.43441       0.06292       0.00095       1.03920       0.05000       1.00000       0.01000       0.00500       1.05000       0.00100      12.00000      50.00000       0.04000       1.00000       0.50000       0.50000       0.00001       0.10000       0.00000       0.00000       0.00000  
hydcha11                         1       0.63976       0.08145       0.00133       0.59249       0.05000       1.00000       0.01000       0.00500       1.05000       0.00100      12.00000      50.00000       0.04000       1.00000       0.50000       0.50000       0.00001       0.10000       0.00000       0.00000       0.00000  
hydcha12                         1       0.15490       0.03164       0.00177       0.26385       0.05000       1.00000       0.01000       0.00500       1.05000       0.00100      12.00000      50.00000       0.04000       1.00000       0.50000       0.50000       0.00001       0.10000       0.00000       0.00000       0.00000  
hydcha13                         2       1.07298       0.11498       0.00011       1.33671       0.05000       1.00000       0.01000       0.00500       1.05000       0.00100      12.00000      50.00000       0.04000       1.00000       0.50000       0.50000       0.00001       0.10000       0.00000       0.00000       0.00000  
hydcha14                         1       1.06055       0.11409       0.00023       1.60225       0.05000       1.00000       0.01000       0.00500       1.05000       0.00100      12.00000      50.00000       0.04000       1.00000       0.50000       0.50000       0.00001       0.10000       0.00000       0.00000       0.00000  
hydcha15                         2       2.30753       0.19156       0.00001       0.00500       0.05000       1.00000       0.01000       0.00500       1.05000       0.00100      12.00000      50.00000       0.04000       1.00000       0.50000       0.50000       0.00001       0.10000       0.00000       0.00000       0.00000  
hydcha16                         1       0.38723       0.05828       0.01093       0.06450       0.05000       1.00000       0.01000       0.00500       1.05000       0.00100      12.00000      50.00000       0.04000       1.00000       0.50000       0.50000       0.00001       0.10000       0.00000       0.00000       0.00000  
hydcha17                         1       0.74825       0.09042       0.00001       0.03207       0.05000       1.00000       0.01000       0.00500       1.05000       0.00100      12.00000      50.00000       0.04000       1.00000       0.50000       0.50000       0.00001       0.10000       0.00000       0.00000       0.00000  
hydcha18                         1       0.77305       0.09240       0.00001       0.14899       0.05000       1.00000       0.01000       0.00500       1.05000       0.00100      12.00000      50.00000       0.04000       1.00000       0.50000       0.50000       0.00001       0.10000       0.00000       0.00000       0.00000  
hydcha19                         1       0.44939       0.06436       0.00001       0.13450       0.05000       1.00000       0.01000       0.00500       1.05000       0.00100      12.00000      50.00000       0.04000       1.00000       0.50000       0.50000       0.00001       0.10000       0.00000       0.00000       0.00000  
hydcha20                         1       0.71956       0.08809       0.00001       0.10000       0.05000       1.00000       0.01000       0.00500       1.05000       0.00100      12.00000      50.00000       0.04000       1.00000       0.50000       0.50000       0.00001       0.10000       0.00000       0.00000       0.00000  
hydcha21                         1       0.97303       0.10772       0.00234       0.07743       0.05000       1.00000       0.01000       0.00500       1.05000       0.00100      12.00000      50.00000       0.04000       1.00000       0.50000       0.50000       0.00001       0.10000       0.00000       0.00000       0.00000  
hydcha22                         1       1.40224       0.13744       0.00001       0.08985       0.05000       1.00000       0.01000       0.00500       1.05000       0.00100      12.00000      50.00000       0.04000       1.00000       0.50000       0.50000       0.00001       0.10000       0.00000       0.00000       0.00000  
hydcha23                         1       0.20579       0.03824       0.00001       0.07036       0.05000       1.00000       0.01000       0.00500       1.05000       0.00100      12.00000      50.00000       0.04000       1.00000       0.50000       0.50000       0.00001       0.10000       0.00000       0.00000       0.00000  
hydcha24                         1       0.78999       0.09375       0.00001       0.13328       0.05000       1.00000       0.01000       0.00500       1.05000       0.00100      12.00000      50.00000       0.04000       1.00000       0.50000       0.50000       0.00001       0.10000       0.00000       0.00000       0.00000  
hydcha25                         1       1.64337       0.15277       0.00001       0.05036       0.05000       1.00000       0.01000       0.00500       1.05000       0.00100      12.00000      50.00000       0.04000       1.00000       0.50000       0.50000       0.00001       0.10000       0.00000       0.00000       0.00000  
hydcha26                         1       0.22264       0.04030       0.00001       0.14743       0.05000       1.00000       0.01000       0.00500       1.05000       0.00100      12.00000      50.00000       0.04000       1.00000       0.50000       0.50000       0.00001       0.10000       0.00000       0.00000       0.00000  
hydcha27                         1       0.37836       0.05739       0.00025       0.12571       0.05000       1.00000       0.01000       0.00500       1.05000       0.00100      12.00000      50.00000       0.04000       1.00000       0.50000       0.50000       0.00001       0.10000       0.00000       0.00000       0.00000  
hydcha28                         1       0.25930       0.04461       0.00228       0.09121       0.05000       1.00000       0.01000       0.00500       1.05000       0.00100      12.00000      50.00000       0.04000       1.00000       0.50000       0.50000       0.00001       0.10000       0.00000       0.00000       0.00000  
hydcha29                         1       0.52535       0.07142       0.00104       0.12121       0.05000       1.00000       0.01000       0.00500       1.05000       0.00100      12.00000      50.00000       0.04000       1.00000       0.50000       0.50000       0.00001       0.10000       0.00000       0.00000       0.00000  
hydcha30                         1       0.33371       0.05278       0.00001       0.09328       0.05000       1.00000       0.01000       0.00500       1.05000       0.00100      12.00000      50.00000       0.04000       1.00000       0.50000       0.50000       0.00001       0.10000       0.00000       0.00000       0.00000  
hydcha31                         1       0.36639       0.05617       0.00001       0.14450       0.05000       1.00000       0.01000       0.00500       1.05000       0.00100      12.00000      50.00000       0.04000       1.00000       0.50000       0.50000       0.00001       0.10000       0.00000       0.00000       0.00000  
hydcha32                         1       0.69472       0.08605       0.00241       0.25571       0.05000       1.00000       0.01000       0.00500       1.05000       0.00100      12.00000      50.00000       0.04000       1.00000       0.50000       0.50000       0.00001       0.10000       0.00000       0.00000       0.00000  
hydcha33                         1       0.39885       0.05944       0.00001       0.09278       0.05000       1.00000       0.01000       0.00500       1.05000       0.00100      12.00000      50.00000       0.04000       1.00000       0.50000       0.50000       0.00001       0.10000       0.00000       0.00000       0.00000  
hydcha34                         1       0.78607       0.09344       0.00001       0.10243       0.05000       1.00000       0.01000       0.00500       1.05000       0.00100      12.00000      50.00000       0.04000       1.00000       0.50000       0.50000       0.00001       0.10000       0.00000       0.00000       0.00000  
hydcha35                         1       0.72093       0.08820       0.00001       0.19485       0.05000       1.00000       0.01000       0.00500       1.05000       0.00100      12.00000      50.00000       0.04000       1.00000       0.50000       0.50000       0.00001       0.10000       0.00000       0.00000       0.00000  
hydcha36                         1       0.47010       0.06633       0.00001       0.08621       0.05000       1.00000       0.01000       0.00500       1.05000       0.00100      12.00000      50.00000       0.04000       1.00000       0.50000       0.50000       0.00001       0.10000       0.00000       0.00000       0.00000  
hydcha37                         1       0.60359       0.07835       0.00027       0.09121       0.05000       1.00000       0.01000       0.00500       1.05000       0.00100      12.00000      50.00000       0.04000       1.00000       0.50000       0.50000       0.00001       0.10000       0.00000       0.00000       0.00000  
hydcha38                         1       0.56039       0.07457       0.00007       0.05707       0.05000       1.00000       0.01000       0.00500       1.05000       0.00100      12.00000      50.00000       0.04000       1.00000       0.50000       0.50000       0.00001       0.10000       0.00000       0.00000       0.00000  
hydcha39                         1       0.05370       0.01561       0.00043       0.09743       0.05000       1.00000       0.01000       0.00500       1.05000       0.00100      12.00000      50.00000       0.04000       1.00000       0.50000       0.50000       0.00001       0.10000       0.00000       0.00000       0.00000  
hydcha40                         3       3.28105       0.24223       0.00181       0.41956       0.05000       1.00000       0.01000       0.00500       1.05000       0.00100      12.00000      50.00000       0.04000       1.00000       0.50000       0.50000       0.00001       0.10000       0.00000       0.00000       0.00000  
hydcha41                         2       0.68449       0.08520       0.00001       4.25702       0.05000       1.00000       0.01000       0.00500       1.05000       0.00100      12.00000      50.00000       0.04000       1.00000       0.50000       0.50000       0.00001       0.10000       0.00000       0.00000       0.00000  
hydcha42                         1       0.10781       0.02485       0.00001       0.75420       0.05000       1.00000       0.01000       0.00500       1.05000       0.00100      12.00000      50.00000       0.04000       1.00000       0.50000       0.50000       0.00001       0.10000       0.00000       0.00000       0.00000  
hydcha43                         3       2.43525       0.19857       0.00001       0.40770       0.05000       1.00000       0.01000       0.00500       1.05000       0.00100      12.00000      50.00000       0.04000       1.00000       0.50000       0.50000       0.00001       0.10000       0.00000       0.00000       0.00000  
hydcha44                         3       2.40651       0.19700       0.00014       0.72447       0.05000       1.00000       0.01000       0.00500       1.05000       0.00100      12.00000      50.00000       0.04000       1.00000       0.50000       0.50000       0.00001       0.10000       0.00000       0.00000       0.00000  
hydcha45                         2       1.15407       0.12070       0.00744       0.02500       0.05000       1.00000       0.01000       0.00500       1.05000       0.00100      12.00000      50.00000       0.04000       1.00000       0.50000       0.50000       0.00001       0.10000       0.00000       0.00000       0.00000  
hydcha46                         3       1.15459       0.12074       0.00009       2.35273       0.05000       1.00000       0.01000       0.00500       1.05000       0.00100      12.00000      50.00000       0.04000       1.00000       0.50000       0.50000       0.00001       0.10000       0.00000       0.00000       0.00000  
hydcha47                         3       0.82440       0.09645       0.00029       0.40621       0.05000       1.00000       0.01000       0.00500       1.05000       0.00100      12.00000      50.00000       0.04000       1.00000       0.50000       0.50000       0.00001       0.10000       0.00000       0.00000       0.00000  
hydcha48                         2       0.48143       0.06739       0.00001       0.11707       0.05000       1.00000       0.01000       0.00500       1.05000       0.00100      12.00000      50.00000       0.04000       1.00000       0.50000       0.50000       0.00001       0.10000       0.00000       0.00000       0.00000  
hydcha49                         2       0.59381       0.07750       0.00641       0.05914       0.05000       1.00000       0.01000       0.00500       1.05000       0.00100      12.00000      50.00000       0.04000       1.00000       0.50000       0.50000       0.00001       0.10000       0.00000       0.00000       0.00000  
hydcha50                         2       0.34576       0.05404       0.00001       0.14500       0.05000       1.00000       0.01000       0.00500       1.05000       0.00100      12.00000      50.00000       0.04000       1.00000       0.50000       0.50000       0.00001       0.10000       0.00000       0.00000       0.00000  
hydcha51                         1       0.17656       0.03453       0.00001       0.47414       0.05000       1.00000       0.01000       0.00500       1.05000       0.00100      12.00000      50.00000       0.04000       1.00000       0.50000       0.50000       0.00001       0.10000       0.00000       0.00000       0.00000  
hydcha52                         1       0.15458       0.03160       0.00001       0.02914       0.05000       1.00000       0.01000       0.00500       1.05000       0.00100      12.00000      50.00000       0.04000       1.00000       0.50000       0.50000       0.00001       0.10000       0.00000       0.00000       0.00000  
hydcha53                         2       0.49887       0.06900       0.00001       3.70602       0.05000       1.00000       0.01000       0.00500       1.05000       0.00100      12.00000      50.00000       0.04000       1.00000       0.50000       0.50000       0.00001       0.10000       0.00000       0.00000       0.00000  
hydcha54                         1       0.27776       0.04670       0.00001       4.43602       0.05000       1.00000       0.01000       0.00500       1.05000       0.00100      12.00000      50.00000       0.04000       1.00000       0.50000       0.50000       0.00001       0.10000       0.00000       0.00000       0.00000  
hydcha55                         2       0.84842       0.09832       0.00207       0.44607       0.05000       1.00000       0.01000       0.00500       1.05000       0.00100      12.00000      50.00000       0.04000       1.00000       0.50000       0.50000       0.00001       0.10000       0.00000       0.00000       0.00000  
hydcha56                         3       4.21800       0.28639       0.00001       0.22071       0.05000       1.00000       0.01000       0.00500       1.05000       0.00100      12.00000      50.00000       0.04000       1.00000       0.50000       0.50000       0.00001       0.10000       0.00000       0.00000       0.00000  
hydcha57                         3       4.36947       0.29320       0.00005       0.60420       0.05000       1.00000       0.01000       0.00500       1.05000       0.00100      12.00000      50.00000       0.04000       1.00000       0.50000       0.50000       0.00001       0.10000       0.00000       0.00000       0.00000  
hydcha58                         3       4.59552       0.30323       0.00004       0.58471       0.05000       1.00000       0.01000       0.00500       1.05000       0.00100      12.00000      50.00000       0.04000       1.00000       0.50000       0.50000       0.00001       0.10000       0.00000       0.00000       0.00000  
hydcha59                         3       4.65844       0.30599       0.00001       1.03749       0.05000       1.00000       0.01000       0.00500       1.05000       0.00100      12.00000      50.00000       0.04000       1.00000       0.50000       0.50000       0.00001       0.10000       0.00000       0.00000       0.00000  
hydcha60                         3       4.78315       0.31143       0.00001       0.15414       0.05000       1.00000       0.01000       0.00500       1.05000       0.00100      12.00000      50.00000       0.04000       1.00000       0.50000       0.50000       0.00001       0.10000       0.00000       0.00000       0.00000  
hydcha61                         3       4.90225       0.31658       0.00001       0.01500       0.05000       1.00000       0.01000       0.00500       1.05000       0.00100      12.00000      50.00000       0.04000       1.00000       0.50000       0.50000       0.00001       0.10000       0.00000       0.00000       0.00000  
hydcha62                         2       0.98941       0.10893       0.00001       0.03598       0.05000       1.00000       0.01000       0.00500       1.05000       0.00100      12.00000      50.00000       0.04000       1.00000       0.50000       0.50000       0.00001       0.10000       0.00000       0.00000       0.00000  
hydcha63                         2       0.87054       0.10002       0.00091       0.45956       0.05000       1.00000       0.01000       0.00500       1.05000       0.00100      12.00000      50.00000       0.04000       1.00000       0.50000       0.50000       0.00001       0.10000       0.00000       0.00000       0.00000  
hydcha64                         2       0.72207       0.08830       0.00001       0.64855       0.05000       1.00000       0.01000       0.00500       1.05000       0.00100      12.00000      50.00000       0.04000       1.00000       0.50000       0.50000       0.00001       0.10000       0.00000       0.00000       0.00000  
hydcha65                         2       0.57812       0.07613       0.00025       0.63562       0.05000       1.00000       0.01000       0.00500       1.05000       0.00100      12.00000      50.00000       0.04000       1.00000       0.50000       0.50000       0.00001       0.10000       0.00000       0.00000       0.00000  
hydcha66                         1       0.14390       0.03013       0.00001       1.30803       0.05000       1.00000       0.01000       0.00500       1.05000       0.00100      12.00000      50.00000       0.04000       1.00000       0.50000       0.50000       0.00001       0.10000       0.00000       0.00000       0.00000  
hydcha67                         2       0.92867       0.10442       0.00063       0.25692       0.05000       1.00000       0.01000       0.00500       1.05000       0.00100      12.00000      50.00000       0.04000       1.00000       0.50000       0.50000       0.00001       0.10000       0.00000       0.00000       0.00000  
hydcha68                         2       1.00468       0.11004       0.00001       1.25314       0.05000       1.00000       0.01000       0.00500       1.05000       0.00100      12.00000      50.00000       0.04000       1.00000       0.50000       0.50000       0.00001       0.10000       0.00000       0.00000       0.00000  
hydcha69                         2       2.05194       0.17714       0.00020       1.07627       0.05000       1.00000       0.01000       0.00500       1.05000       0.00100      12.00000      50.00000       0.04000       1.00000       0.50000       0.50000       0.00001       0.10000       0.00000       0.00000       0.00000  
hydcha70                         2       2.20838       0.18604       0.03330       0.02207       0.05000       1.00000       0.01000       0.00500       1.05000       0.00100      12.00000      50.00000       0.04000       1.00000       0.50000       0.50000       0.00001       0.10000       0.00000       0.00000       0.00000  
hydcha71                         2       1.81714       0.16336       0.00001       1.13826       0.05000       1.00000       0.01000       0.00500       1.05000       0.00100      12.00000      50.00000       0.04000       1.00000       0.50000       0.50000       0.00001       0.10000       0.00000       0.00000       0.00000  
hydcha72                         2       1.51850       0.14493       0.00001       1.91421       0.05000       1.00000       0.01000       0.00500       1.05000       0.00100      12.00000      50.00000       0.04000       1.00000       0.50000       0.50000       0.00001       0.10000       0.00000       0.00000       0.00000  
hydcha73                         2       0.75886       0.09127       0.00001       0.62270       0.05000       1.00000       0.01000       0.00500       1.05000       0.00100      12.00000      50.00000       0.04000       1.00000       0.50000       0.50000       0.00001       0.10000       0.00000       0.00000       0.00000  
hydcha74                         2       1.39176       0.13675       0.00958       0.02828       0.05000       1.00000       0.01000       0.00500       1.05000       0.00100      12.00000      50.00000       0.04000       1.00000       0.50000       0.50000       0.00001       0.10000       0.00000       0.00000       0.00000  
hydcha75                         1       0.19712       0.03716       0.00001       2.09108       0.05000       1.00000       0.01000       0.00500       1.05000       0.00100      12.00000      50.00000       0.04000       1.00000       0.50000       0.50000       0.00001       0.10000       0.00000       0.00000       0.00000  
hydcha76                         2       0.38111       0.05767       0.00026       4.27313       0.05000       1.00000       0.01000       0.00500       1.05000       0.00100      12.00000      50.00000       0.04000       1.00000       0.50000       0.50000       0.00001       0.10000       0.00000       0.00000       0.00000  
hydcha77                         1       1.92472       0.16974       0.00007       4.84427       0.05000       1.00000       0.01000       0.00500       1.05000       0.00100      12.00000      50.00000       0.04000       1.00000       0.50000       0.50000       0.00001       0.10000       0.00000       0.00000       0.00000  
