irr.ops: written by SWAT+ editor v2.3.0 on 2023-10-17 20:05 for SWAT+ rev.60.5.7
       NAME IRR_AMT   IRR_EFF   SURQ_RTO   IRR_DEP   IRR_SALT   IRR_NO3N   IRR_PO4
       drip      50       0.9          0         0          0          0         0
  sprinkler      50       0.7        0.1         0          0          0         0
 subsurface      50         1          0       200          0          0         0
    surface      50       0.9        0.1         0          0          0         0
  ponding20      50         1        0.0         0          0          0         0
  ponding30      20         1        0.0         0          0          0         0
  ponding40      30         1        0.0         0          0          0         0
  ponding50      35         1        0.0         0          0          0         0
  ponding80      75         1        0.0         0          0          0         0
  ponding100     90         1        0.0         0          0          0         0
  ponding150    160         1        0.0         0          0          0         0
  ponding350    176         1        0.0         0          0          0         0
  ponding400    175         1        0.0         0          0          0         0
  ponding41     120         1        0.0         0        900          6       0.5
  ponding42     125         1        0.0         0        900          6       0.5
  ponding43      15         1        0.0         0        900          6       0.5
  ponding44      60         1        0.0         0        900          6       0.5
  ponding81     115         1        0.0         0        900          6       0.5
  ponding82     135         1        0.0         0        900          6       0.5
  ponding83      25         1        0.0         0        900          6       0.5
  ponding84      60         1        0.0         0        900          6       0.5
  ponding101    122         1        0.0         0        900          6       0.5
  ponding102    140         1        0.0         0        900          6       0.5
  ponding103     30         1        0.0         0        900          6       0.5
  ponding104     60         1        0.0         0        900          6       0.5
  ponding131    122         1        0.0         0        900          6       0.5
  ponding132    140         1        0.0         0        900          6       0.5
  ponding133     15         1        0.0         0        900          6       0.5
  ponding134     60         1        0.0         0        900          6       0.5
  ponding181    122         1        0.0         0        900          6       0.5
  ponding182    140         1        0.0         0        900          6       0.5
  ponding183     25         1        0.0         0        900          6       0.5
  ponding184     55         1        0.0         0        900          6       0.5
  ponding221    122         1        0.0         0        900          6       0.5
  ponding222    135         1        0.0         0        900          6       0.5
  ponding223     25         1        0.0         0        900          6       0.5
  ponding224     55         1        0.0         0        900          6       0.5
  ponding261    120         1        0.0         0        900          6       0.5
  ponding262    125         1        0.0         0        900          6       0.5
  ponding263     15         1        0.0         0        900          6       0.5
  ponding264     60         1        0.0         0        900          6       0.5
  ponding291    116         1        0.0         0        900          6       0.5
  ponding292    130         1        0.0         0        900          6       0.5
  ponding293     25         1        0.0         0        900          6       0.5
  ponding294     55         1        0.0         0        900          6       0.5
  ponding331    115         1        0.0         0        900          6       0.5
  ponding332    135         1        0.0         0        900          6       0.5
  ponding333     25         1        0.0         0        900          6       0.5
  ponding334     58         1        0.0         0        900          6       0.5
  ponding361    115         1        0.0         0        900          6       0.5
  ponding362    132         1        0.0         0        900          6       0.5
  ponding363     25         1        0.0         0        900          6       0.5
  ponding364     60         1        0.0         0        900          6       0.5
  ponding391    112         1        0.0         0        900          6       0.5
  ponding392    127         1        0.0         0        900          6       0.5
  ponding393     25         1        0.0         0        900          6       0.5
  ponding394     55         1        0.0         0        900          6       0.5
  ponding401    116         1        0.0         0        900          6       0.5
  ponding402    132         1        0.0         0        900          6       0.5
  ponding403     25         1        0.0         0        900          6       0.5
  ponding404     60         1        0.0         0        900          6       0.5
  ponding471    117         1        0.0         0        900          6       0.5
  ponding472    130         1        0.0         0        900          6       0.5
  ponding473     15         1        0.0         0        900          6       0.5
  ponding474     60         1        0.0         0        900          6       0.5
  ponding501    112         1        0.0         0        900          6       0.5
  ponding502    135         1        0.0         0        900          6       0.5
  ponding503     25         1        0.0         0        900          6       0.5
  ponding504     60         1        0.0         0        900          6       0.5
  ponding561    116         1        0.0         0        900          6       0.5
  ponding562    130         1        0.0         0        900          6       0.5
  ponding563     25         1        0.0         0        900          6       0.5
  ponding564     55         1        0.0         0        900          6       0.5
  ponding661    115         1        0.0         0        900          6       0.5
  ponding662    130         1        0.0         0        900          6       0.5
  ponding663     15         1        0.0         0        900          6       0.5
  ponding664     60         1        0.0         0        900          6       0.5
  ponding721    116         1        0.0         0        900          6       0.5
  ponding722    125         1        0.0         0        900          6       0.5
  ponding723     25         1        0.0         0        900          6       0.5
  ponding724     55         1        0.0         0        900          6       0.5
  ponding751    115         1        0.0         0        900          6       0.5
  ponding752    130         1        0.0         0        900          6       0.5
  ponding753     15         1        0.0         0        900          6       0.5
  ponding754     60         1        0.0         0        900          6       0.5
  ponding791    116         1        0.0         0        900          6       0.5
  ponding792    130         1        0.0         0        900          6       0.5
  ponding793     25         1        0.0         0        900          6       0.5
  ponding794     55         1        0.0         0        900          6       0.5
  ponding851    116         1        0.0         0        900          6       0.5
  ponding852    132         1        0.0         0        900          6       0.5
  ponding853     25         1        0.0         0        900          6       0.5
  ponding854     60         1        0.0         0        900          6       0.5
  ponding891    118         1        0.0         0        900          6       0.5
  ponding892    125         1        0.0         0        900          6       0.5
  ponding893     15         1        0.0         0        900          6       0.5
  ponding894     60         1        0.0         0        900          6       0.5
  ponding931    116         1        0.0         0        900          6       0.5
  ponding932    125         1        0.0         0        900          6       0.5
  ponding933     15         1        0.0         0        900          6       0.5
  ponding934     60         1        0.0         0        900          6       0.5
  ponding981    115         1        0.0         0        900          6       0.5
  ponding982    128         1        0.0         0        900          6       0.5
  ponding983     20         1        0.0         0        900          6       0.5
  ponding984     60         1        0.0         0        900          6       0.5
  ponding1021   112         1        0.0         0        900          6       0.5
  ponding1022   127         1        0.0         0        900          6       0.5
  ponding1023    25         1        0.0         0        900          6       0.5
  ponding1024    55         1        0.0         0        900          6       0.5
  ponding1061   113         1        0.0         0        900          6       0.5
  ponding1062   129         1        0.0         0        900          6       0.5
  ponding1063    25         1        0.0         0        900          6       0.5
  ponding1064    55         1        0.0         0        900          6       0.5
  ponding1101   113         1        0.0         0        900          6       0.5
  ponding1102   129         1        0.0         0        900          6       0.5
  ponding1103    25         1        0.0         0        900          6       0.5
  ponding1104    55         1        0.0         0        900          6       0.5
  ponding1141   115         1        0.0         0        900          6       0.5
  ponding1142   130         1        0.0         0        900          6       0.5
  ponding1143    25         1        0.0         0        900          6       0.5
  ponding1144    55         1        0.0         0        900          6       0.5
  ponding1201   113         1        0.0         0        900          6       0.5
  ponding1202   124         1        0.0         0        900          6       0.5
  ponding1203    15         1        0.0         0        900          6       0.5
  ponding1204    60         1        0.0         0        900          6       0.5
  ponding1241   114         1        0.0         0        900          6       0.5
  ponding1242   133         1        0.0         0        900          6       0.5
  ponding1243     7         1        0.0         0        900          6       0.5
  ponding1244    60         1        0.0         0        900          6       0.5
  ponding1281   114         1        0.0         0        900          6       0.5
  ponding1282   132         1        0.0         0        900          6       0.5
  ponding1283    25         1        0.0         0        900          6       0.5
  ponding1284    55         1        0.0         0        900          6       0.5
  ponding1311   115         1        0.0         0        900          6       0.5
  ponding1312   130         1        0.0         0        900          6       0.5
  ponding1313    15         1        0.0         0        900          6       0.5
  ponding1314    60         1        0.0         0        900          6       0.5
  ponding1351   115         1        0.0         0        900          6       0.5
  ponding1352   125         1        0.0         0        900          6       0.5
  ponding1353    15         1        0.0         0        900          6       0.5
  ponding1354    60         1        0.0         0        900          6       0.5
  ponding1391   115         1        0.0         0        900          6       0.5
  ponding1392   133         1        0.0         0        900          6       0.5
  ponding1393    15         1        0.0         0        900          6       0.5
  ponding1394    60         1        0.0         0        900          6       0.5
  ponding1431   113         1        0.0         0        900          6       0.5
  ponding1432   129         1        0.0         0        900          6       0.5
  ponding1433    25         1        0.0         0        900          6       0.5
  ponding1434    60         1        0.0         0        900          6       0.5
ponding_off       0         1        0.1         0          0          0       0  
