ls_unit.ele: written by SWAT+ editor v2.3.0 on 2023-10-17 20:05 for SWAT+ rev.60.5.7
      id  name                   obj_typ  obj_typ_no      bsn_frac      sub_frac      reg_frac  
       1  hru001                     hru           1             1             1       0.00000  

       2  hru002                     hru           2     4.6525E-3       0.75942       0.00000  
       3  hru003                     hru           3     1.0861E-3       0.03399       0.00000  
       4  hru004                     hru           4     3.0866E-2       0.96601       0.00000  
       5  hru005                     hru           5     5.6124E-5       0.04262       0.00000  
       6  hru006                     hru           6     1.2606E-3       0.95738       0.00000  
       7  hru007                     hru           7     2.3187E-4       0.03987       0.00000  
       8  hru008                     hru           8     5.5836E-3       0.96013       0.00000  
       9  hru009                     hru           9     1.7159E-3       0.01156       0.00000  
      10  hru010                     hru          10     1.4677E-1       0.98844       0.00000  
      11  hru011                     hru          11     2.1953E-4       0.17350       0.00000  
      12  hru012                     hru          12     1.0457E-3       0.82650       0.00000  
      13  hru013                     hru          13     1.9660E-2       0.99618       0.00000  
      14  hru014                     hru          14     7.5477E-5       0.00382       0.00000  
      15  hru015                     hru          15     4.9720E-3       0.75976       0.00000  
      16  hru016                     hru          16     1.5722E-3       0.24024       0.00000  
      17  hru017                     hru          17     1.1049E-3       0.00932       0.00000  
      18  hru018                     hru          18     1.1747E-1       0.99068       0.00000  
      19  hru019                     hru          19     5.9402E-6       0.33333       0.00000  
      20  hru020                     hru          20     1.1880E-5       0.66667       0.00000  
      21  hru021                     hru          21     3.9601E-4       1.00000       0.00000  
      22  hru022                     hru          22     1.0537E-2       0.98857       0.00000  
      23  hru023                     hru          23     1.2184E-4       0.01143       0.00000  
      24  hru024                     hru          24     4.1304E-3       0.79376       0.00000  
      25  hru025                     hru          25     1.0732E-3       0.20624       0.00000  
      26  hru026                     hru          26     4.8244E-2       0.97456       0.00000  
      27  hru027                     hru          27     1.2593E-3       0.02544       0.00000  
      28  hru028                     hru          28     2.5741E-5       1.00000       0.00000  
      29  hru029                     hru          29     2.3047E-3       0.99910       0.00000  
      30  hru030                     hru          30     2.0689E-6       0.00090       0.00000  
      31  hru031                     hru          31     1.8415E-4       0.32180       0.00000  
      32  hru032                     hru          32     3.8809E-4       0.67820       0.00000  
      33  hru033                     hru          33     5.7759E-3       1.00000       0.00000  
      34  hru034                     hru          34     1.1484E-4       0.67442       0.00000  
      35  hru035                     hru          35     5.5442E-5       0.32558       0.00000  
      36  hru036                     hru          36     6.3560E-3       1.00000       0.00000  
      37  hru037                     hru          37     1.0296E-4       0.73239       0.00000  
      38  hru038                     hru          38     3.7621E-5       0.26761       0.00000  
      39  hru039                     hru          39     8.7341E-3       1.00000       0.00000  
      40  hru040                     hru          40     1.2908E-2       0.99984       0.00000  
      41  hru041                     hru          41     2.0031E-6       0.00016       0.00000  
      42  hru042                     hru          42     1.1880E-5       0.13043       0.00000  
      43  hru043                     hru          43     7.9203E-5       0.86957       0.00000  
      44  hru044                     hru          44     3.4057E-4       0.68526       0.00000  
      45  hru045                     hru          45     1.5643E-4       0.31474       0.00000  
      46  hru046                     hru          46     1.0696E-4       0.00435       0.00000  
      47  hru047                     hru          47     2.4503E-2       0.99565       0.00000  
      48  hru048                     hru          48     5.1680E-4       0.14070       0.00000  
      49  hru049                     hru          49     3.1562E-3       0.85930       0.00000  
      50  hru050                     hru          50     9.0125E-2       0.99019       0.00000  
      51  hru051                     hru          51     8.9301E-4       0.00981       0.00000  
      52  hru052                     hru          52     2.3761E-5       0.92308       0.00000  
      53  hru053                     hru          53     1.9801E-6       0.07692       0.00000  
      54  hru054                     hru          54     1.1663E-3       0.94089       0.00000  
      55  hru055                     hru          55     7.3263E-5       0.05911       0.00000  
      56  hru056                     hru          56     3.5027E-3       0.94246       0.00000  
      57  hru057                     hru          57     2.1385E-4       0.05754       0.00000  
      58  hru058                     hru          58     7.4253E-4       0.97911       0.00000  
      59  hru059                     hru          59     1.5841E-5       0.02089       0.00000  
      60  hru060                     hru          60     7.7421E-4       0.92217       0.00000  
      61  hru061                     hru          61     6.5342E-5       0.07783       0.00000  
      62  hru062                     hru          62     6.1382E-5       0.07143       0.00000  
      63  hru063                     hru          63     7.9797E-4       0.92857       0.00000  
      64  hru064                     hru          64     5.5244E-4       0.91475       0.00000  
      65  hru065                     hru          65     5.1482E-5       0.08525       0.00000  
      66  hru066                     hru          66     3.3107E-2       0.98134       0.00000  
      67  hru067                     hru          67     6.2966E-4       0.01866       0.00000  
      68  hru068                     hru          68     6.6728E-4       0.81796       0.00000  
      69  hru069                     hru          69     1.4851E-4       0.18204       0.00000  
      70  hru070                     hru          70     2.6333E-4       0.74713       0.00000  
      71  hru071                     hru          71     8.9126E-5       0.25287       0.00000  
      72  hru072                     hru          72     2.3147E-3       1.00000       0.00000  
      73  hru073                     hru          73     7.2807E-3       0.94403       0.00000  
      74  hru074                     hru          74     4.3165E-4       0.05597       0.00000  
      75  hru075                     hru          75     3.4546E-2       0.98766       0.00000  
      76  hru076                     hru          76     4.3165E-4       0.01234       0.00000  
      77  hru077                     hru          77     3.7225E-4       0.84305       0.00000  
      78  hru078                     hru          78     6.9302E-5       0.15695       0.00000  
      79  hru079                     hru          79     4.1423E-3       0.97757       0.00000  
      80  hru080                     hru          80     9.5043E-5       0.02243       0.00000  
      81  hru081                     hru          81     1.9187E-3       0.88011       0.00000  
      82  hru082                     hru          82     2.6137E-4       0.11989       0.00000  
      83  hru083                     hru          83     6.9104E-4       0.81352       0.00000  
      84  hru084                     hru          84     1.5841E-4       0.18648       0.00000  
      85  hru085                     hru          85     1.3659E-2       0.99986       0.00000  
      86  hru086                     hru          86     1.9801E-6       0.00014       0.00000  
      87  hru087                     hru          87     1.1148E-3       0.78194       0.00000  
      88  hru088                     hru          88     3.1087E-4       0.21806       0.00000  
      89  hru089                     hru          89     2.9485E-2       0.98492       0.00000  
      90  hru090                     hru          90     4.5149E-4       0.01508       0.00000  
      91  hru091                     hru          91     3.5920E-4       0.97531       0.00000  
      92  hru092                     hru          92     9.0936E-6       0.02469       0.00000  
      93  hru093                     hru          93     2.8459E-2       0.96792       0.00000  
      94  hru094                     hru          94     9.4323E-4       0.03208       0.00000  
      95  hru095                     hru          95     3.5641E-5       1.00000       0.00000  
      96  hru096                     hru          96     1.1682E-4       0.05706       0.00000  
      97  hru097                     hru          97     1.9306E-3       0.94294       0.00000  
      98  hru098                     hru          98     1.7373E-2       0.98034       0.00000  
      99  hru099                     hru          99     3.4849E-4       0.01966       0.00000  
     100  hru100                     hru         100     9.0687E-4       0.89105       0.00000  
     101  hru101                     hru         101     1.1088E-4       0.10895       0.00000  
     102  hru102                     hru         102     8.1044E-3       0.97429       0.00000  
     103  hru103                     hru         103     2.1385E-4       0.02571       0.00000  
     104  hru104                     hru         104     8.9103E-4       0.88583       0.00000  
     105  hru105                     hru         105     1.1484E-4       0.11417       0.00000  
     106  hru106                     hru         106     9.9102E-3       0.96640       0.00000  
     107  hru107                     hru         107     3.4453E-4       0.03360       0.00000  
     108  hru108                     hru         108     8.1183E-5       0.10733       0.00000  
     109  hru109                     hru         109     6.7520E-4       0.89267       0.00000  
     110  hru110                     hru         110     9.3479E-3       0.96170       0.00000  
     111  hru111                     hru         111     3.7225E-4       0.03830       0.00000  
     112  hru112                     hru         112     4.7522E-5       0.82759       0.00000  
     113  hru113                     hru         113     9.9003E-6       0.17241       0.00000  
     114  hru114                     hru         114     5.2907E-3       0.96847       0.00000  
     115  hru115                     hru         115     1.7227E-4       0.03153       0.00000  
     116  hru116                     hru         116     4.9884E-4       0.26216       0.00000  
     117  hru117                     hru         117     1.4040E-3       0.73784       0.00000  
     118  hru118                     hru         118     3.1694E-3       0.91624       0.00000  
     119  hru119                     hru         119     2.8975E-4       0.08376       0.00000  
     120  hru120                     hru         120     2.8188E-2       0.99836       0.00000  
     121  hru121                     hru         121     4.6229E-5       0.00164       0.00000  
     122  hru122                     hru         122     9.1479E-4       0.89883       0.00000  
     123  hru123                     hru         123     1.0296E-4       0.10117       0.00000  
     124  hru124                     hru         124     5.6260E-2       0.98451       0.00000  
     125  hru125                     hru         125     8.8526E-4       0.01549       0.00000  
     126  hru126                     hru         126     2.5741E-5       0.81250       0.00000  
     127  hru127                     hru         127     5.9402E-6       0.18750       0.00000  
     128  hru128                     hru         128     1.1197E-2       1.00000       0.00000  
     129  hru129                     hru         129     2.6850E-3       0.94036       0.00000  
     130  hru130                     hru         130     1.7029E-4       0.05964       0.00000  
     131  hru131                     hru         131     3.4653E-2       0.99896       0.00000  
     132  hru132                     hru         132     3.5957E-5       0.00104       0.00000  
     133  hru133                     hru         133     1.3247E-3       0.84470       0.00000  
     134  hru134                     hru         134     2.4355E-4       0.15530       0.00000  
     135  hru135                     hru         135     3.0028E-2       0.99987       0.00000  
     136  hru136                     hru         136     3.9912E-6       0.00013       0.00000  
     137  hru137                     hru         137     1.1069E-3       0.76680       0.00000  
     138  hru138                     hru         138     3.3661E-4       0.23320       0.00000  
     139  hru139                     hru         139     2.1921E-2       0.98147       0.00000  
     140  hru140                     hru         140     4.1391E-4       0.01853       0.00000  
     141  hru141                     hru         141     9.9003E-6       0.35714       0.00000  
     142  hru142                     hru         142     1.7821E-5       0.64286       0.00000  
     143  hru143                     hru         143     1.4726E-2       1.00000       0.00000  
     144  hru144                     hru         144     7.4253E-6       0.75000       0.00000  
     145  hru145                     hru         145     2.4751E-6       0.25000       0.00000  
