object.cnt: written by SWAT+ editor v2.3.0 on 2023-10-17 20:05 for SWAT+ rev.60.5.7
name                            ls_area      tot_area       obj       hru      lhru       rtu       mfl       aqu       cha       res       rec      exco       dlr       can       pmp       out      lcha     aqu2d       hrd       wro  
Comunidad_de_riego_Turia_            10            10         4         1         0         1         0         1         0         0         0         0         0         0         0         0         1         0         0         0  
