rout_unit.con: written by SWAT+ editor v2.3.0 on 2023-10-17 20:05 for SWAT+ rev.60.5.7
      id  name                gis_id          area           lat           lon          elev       rtu               wst       cst      ovfl      rule   out_tot       obj_typ    obj_id       hyd_typ          frac  
       1  rtu010                  10            10      39.36867      -0.33013       0.34352         1       s39280n462w         0         0         0         2           sdc         1           tot       1.00000           aqu         1           rhg       1.00000  

       2  rtu020                  20       7.34250      39.42383      -0.34364       1.01907         2       s39280n462w         0         0         0         2           sdc         2           tot       1.00000           aqu         4           rhg       1.00000  
       3  rtu030                  30       0.02250      39.38546      -0.33753       0.00000         3       s39280n462w         0         0         0         2           sdc         3           tot       1.00000           aqu        10           rhg       1.00000  
       4  rtu040                  40       1.08500      39.38115      -0.33502       0.82028         4       s39280n462w         0         0         0         2           sdc         4           tot       1.00000           aqu        34           rhg       1.00000  
       5  rtu050                  50       0.03250      39.39322      -0.34516       0.00000         5       s39280n462w         0         0         0         2           sdc         5           tot       1.00000           aqu        29           rhg       1.00000  
       6  rtu060                  60       0.44500      39.41417      -0.36592       1.39888         6       s39280n462w         0         0         0         2           sdc         6           tot       1.00000           aqu        38           rhg       1.00000  
       7  rtu070                  70       7.29250      39.41977      -0.35418       1.12376         7       s39280n462w         0         0         0         2           sdc         7           tot       1.00000           aqu        18           rhg       1.00000  
       8  rtu080                  80       8.02500      39.41834      -0.35575       0.95327         8       s39280n462w         0         0         0         2           sdc         8           tot       1.00000           aqu        20           rhg       1.00000  
       9  rtu090                  90      11.02750      39.41707      -0.35721       0.91045         9       s39280n462w         0         0         0         2           sdc         9           tot       1.00000           aqu        22           rhg       1.00000  
      10  rtu100                 100      16.30000      39.41581      -0.35994       1.07561        10       s39280n462w         0         0         0         2           sdc        10           tot       1.00000           aqu        23           rhg       1.00000  
      11  rtu110                 110      31.07250      39.41361      -0.35895       0.80739        11       s39280n462w         0         0         0         2           sdc        11           tot       1.00000           aqu        26           rhg       1.00000  
      12  rtu120                 120       2.92250      39.41425      -0.36682       1.55175        12       s39280n462w         0         0         0         2           sdc        12           tot       1.00000           aqu        39           rhg       1.00000  
      13  rtu130                 130       2.40250      39.36444      -0.33422       0.01041        13       s39280n462w         0         0         0         2           sdc        13           tot       1.00000           aqu        62           rhg       1.00000  
      14  rtu140                 140      72.15000      39.39997      -0.35806       0.32089        14       s39280n462w         0         0         0         2           sdc        14           tot       1.00000           aqu        66           rhg       1.00000  
      15  rtu150                 150       0.01250      39.35873      -0.33607       0.00000        15       s39280n462w         0         0         0         2           sdc        15           tot       1.00000           aqu        77           rhg       1.00000  
      16  rtu160                 160      13.45750      39.42682      -0.34955       1.27104        16       s39280n462w         0         0         0         2           sdc        16           tot       1.00000           aqu        12           rhg       1.00000  
      17  rtu170                 170      40.34250      39.39812      -0.33621       0.21435        17       s39280n462w         0         0         0         2           sdc        17           tot       1.00000           aqu         2           rhg       1.00000  
      18  rtu180                 180      42.59500      39.38055      -0.33698       0.06638        18       s39280n462w         0         0         0         2           sdc        18           tot       1.00000           aqu        36           rhg       1.00000  
      19  rtu190                 190      17.24750      39.37217      -0.33376       0.18524        19       s39280n462w         0         0         0         2           sdc        19           tot       1.00000           aqu        46           rhg       1.00000  
      20  rtu200                 200      37.79750      39.36432      -0.33214       0.00060        20       s39280n462w         0         0         0         2           sdc        20           tot       1.00000           aqu        48           rhg       1.00000  
      21  rtu210                 210      62.50250      39.41086      -0.35150       0.57666        21       s39280n462w         0         0         0         2           sdc        21           tot       1.00000           aqu        14           rhg       1.00000  
      22  rtu220                 220     114.91750      39.40503      -0.35619       0.38669        22       s39280n462w         0         0         0         2           sdc        22           tot       1.00000           aqu        28           rhg       1.00000  
      23  rtu230                 230       4.69250      39.39060      -0.34369       0.00160        23       s39280n462w         0         0         0         2           sdc        23           tot       1.00000           aqu        31           rhg       1.00000  
      24  rtu240                 240      44.16250      39.38892      -0.34583       0.00515        24       s39280n462w         0         0         0         2           sdc        24           tot       1.00000           aqu        41           rhg       1.00000  
      25  rtu250                 250     149.70750      39.40798      -0.34685       0.41800        25       s39280n462w         0         0         0         2           sdc        25           tot       1.00000           aqu         9           rhg       1.00000  
      26  rtu260                 260       5.35000      39.38235      -0.34121       0.00000        26       s39280n462w         0         0         0         2           sdc        26           tot       1.00000           aqu        43           rhg       1.00000  
      27  rtu270                 270      12.94750      39.37783      -0.33904       0.00193        27       s39280n462w         0         0         0         2           sdc        27           tot       1.00000           aqu        57           rhg       1.00000  
      28  rtu280                 280       6.89750      39.37174      -0.33569       0.00362        28       s39280n462w         0         0         0         2           sdc        28           tot       1.00000           aqu        61           rhg       1.00000  
      29  rtu290                 290      22.37500      39.38710      -0.34814       0.00358        29       s39280n462w         0         0         0         2           sdc        29           tot       1.00000           aqu        53           rhg       1.00000  
      30  rtu300                 300      10.50250      39.38092      -0.34313       0.00000        30       s39280n462w         0         0         0         2           sdc        30           tot       1.00000           aqu        55           rhg       1.00000  
      31  rtu310                 310      12.27250      39.37407      -0.33897       0.00000        31       s39280n462w         0         0         0         2           sdc        31           tot       1.00000           aqu        59           rhg       1.00000  
      32  rtu320                 320      35.64750      39.40101      -0.36220       0.62347        32       s39280n462w         0         0         0         2           sdc        32           tot       1.00000           aqu        64           rhg       1.00000  
      33  rtu330                 330      14.13750      39.39232      -0.35681       0.04279        33       s39280n462w         0         0         0         2           sdc        33           tot       1.00000           aqu        68           rhg       1.00000  
      34  rtu340                 340      43.79750      39.38250      -0.34777       0.00251        34       s39280n462w         0         0         0         2           sdc        34           tot       1.00000           aqu        70           rhg       1.00000  
      35  rtu350                 350      37.91750      39.37217      -0.34127       0.00000        35       s39280n462w         0         0         0         2           sdc        35           tot       1.00000           aqu        72           rhg       1.00000  
      36  rtu360                 360      18.59250      39.36396      -0.33824       0.00000        36       s39280n462w         0         0         0         2           sdc        36           tot       1.00000           aqu        76           rhg       1.00000  
      37  rtu370                 370      28.20000      39.36420      -0.33559      -0.00053        37       s39280n462w         0         0         0         2           sdc        37           tot       1.00000           aqu        74           rhg       1.00000  
      38  rtu380                 380      24.91750      39.42416      -0.34698       1.00492        38       s39280n462w         0         0         0         2           sdc        38           tot       1.00000           aqu         7           rhg       1.00000  
      39  rtu390                 390       0.50000      39.42519      -0.35118       1.27500        39       s39280n462w         0         0         0         2           sdc        39           tot       1.00000           aqu        11           rhg       1.00000  
      40  rtu400                 400       1.06000      39.38380      -0.33663       0.13679        40       s39280n462w         0         0         0         2           sdc        40           tot       1.00000           aqu        33           rhg       1.00000  
      41  rtu410                 410       8.26250      39.40162      -0.34306       0.04690        41       s39280n462w         0         0         0         2           sdc        41           tot       1.00000           aqu         8           rhg       1.00000  
      42  rtu420                 420       1.59750      39.42461      -0.34470       0.77934        42       s39280n462w         0         0         0         2           sdc        42           tot       1.00000           aqu         6           rhg       1.00000  
      43  rtu430                 430       0.95750      39.38671      -0.33923       0.03916        43       s39280n462w         0         0         0         2           sdc        43           tot       1.00000           aqu        32           rhg       1.00000  
      44  rtu440                 440       1.56500      39.39050      -0.34294       0.06230        44       s39280n462w         0         0         0         2           sdc        44           tot       1.00000           aqu        30           rhg       1.00000  
      45  rtu450                 450       0.03250      39.39330      -0.34498       0.00000        45       s39280n462w         0         0         0         2           sdc        45           tot       1.00000           aqu        15           rhg       1.00000  
      46  rtu460                 460       4.63750      39.40102      -0.35079       0.12183        46       s39280n462w         0         0         0         2           sdc        46           tot       1.00000           aqu        27           rhg       1.00000  
      47  rtu470                 470       0.62750      39.41366      -0.35324       0.00000        47       s39280n462w         0         0         0         2           sdc        47           tot       1.00000           aqu        25           rhg       1.00000  
      48  rtu480                 480       0.17750      39.41596      -0.35321       0.08451        48       s39280n462w         0         0         0         2           sdc        48           tot       1.00000           aqu        21           rhg       1.00000  
      49  rtu490                 490       0.11500      39.41539      -0.35360       0.04348        49       s39280n462w         0         0         0         2           sdc        49           tot       1.00000           aqu        24           rhg       1.00000  
      50  rtu500                 500       0.21500      39.41712      -0.35320       0.02326        50       s39280n462w         0         0         0         2           sdc        50           tot       1.00000           aqu        19           rhg       1.00000  
      51  rtu510                 510       0.72250      39.41989      -0.35315       0.30796        51       s39280n462w         0         0         0         2           sdc        51           tot       1.00000           aqu        17           rhg       1.00000  
      52  rtu520                 520       2.91250      39.42268      -0.35157       1.12876        52       s39280n462w         0         0         0         2           sdc        52           tot       1.00000           aqu        16           rhg       1.00000  
      53  rtu530                 530       6.57000      39.40759      -0.34946       0.43988        53       s39280n462w         0         0         0         2           sdc        53           tot       1.00000           aqu        13           rhg       1.00000  
      54  rtu540                 540       7.73500      39.40298      -0.33760       0.46057        54       s39280n462w         0         0         0         2           sdc        54           tot       1.00000           aqu         1           rhg       1.00000  
      55  rtu550                 550       1.66250      39.38160      -0.33460       0.65564        55       s39280n462w         0         0         0         2           sdc        55           tot       1.00000           aqu         3           rhg       1.00000  
      56  rtu560                 560       0.76250      39.37891      -0.33384       0.60984        56       s39280n462w         0         0         0         2           sdc        56           tot       1.00000           aqu        35           rhg       1.00000  
      57  rtu570                 570       1.03000      39.37549      -0.33282       0.57282        57       s39280n462w         0         0         0         2           sdc        57           tot       1.00000           aqu        37           rhg       1.00000  
      58  rtu580                 580       1.07250      39.37067      -0.33142       0.23776        58       s39280n462w         0         0         0         2           sdc        58           tot       1.00000           aqu        45           rhg       1.00000  
      59  rtu590                 590       1.80000      39.36399      -0.32987       0.50694        59       s39280n462w         0         0         0         2           sdc        59           tot       1.00000           aqu        47           rhg       1.00000  
      60  rtu600                 600       0.46500      39.35879      -0.32928       0.21505        60       s39280n462w         0         0         0         2           sdc        60           tot       1.00000           aqu        49           rhg       1.00000  
      61  rtu610                 610       0.04500      39.35803      -0.32928       0.44444        61       s39280n462w         0         0         0         2           sdc        61           tot       1.00000           aqu        51           rhg       1.00000  
      62  rtu620                 620       0.07250      39.37002      -0.33578       0.10345        62       s39280n462w         0         0         0         2           sdc        62           tot       1.00000           aqu        60           rhg       1.00000  
      63  rtu630                 630       0.95500      39.37191      -0.33685       0.00262        63       s39280n462w         0         0         0         2           sdc        63           tot       1.00000           aqu        58           rhg       1.00000  
      64  rtu640                 640       1.27000      39.37616      -0.33924       0.00000        64       s39280n462w         0         0         0         2           sdc        64           tot       1.00000           aqu        56           rhg       1.00000  
      65  rtu650                 650       1.28500      39.38108      -0.34196       0.00000        65       s39280n462w         0         0         0         2           sdc        65           tot       1.00000           aqu        54           rhg       1.00000  
      66  rtu660                 660       2.58500      39.38780      -0.34729       0.00000        66       s39280n462w         0         0         0         2           sdc        66           tot       1.00000           aqu        52           rhg       1.00000  
      67  rtu670                 670       0.55750      39.38253      -0.33982       0.02691        67       s39280n462w         0         0         0         2           sdc        67           tot       1.00000           aqu        42           rhg       1.00000  
      68  rtu680                 680       2.75250      39.37706      -0.33681       0.38329        68       s39280n462w         0         0         0         2           sdc        68           tot       1.00000           aqu        44           rhg       1.00000  
      69  rtu690                 690       1.82250      39.36357      -0.33691       0.00000        69       s39280n462w         0         0         0         2           sdc        69           tot       1.00000           aqu        73           rhg       1.00000  
      70  rtu700                 700       0.03500      39.35886      -0.33612       0.00000        70       s39280n462w         0         0         0         2           sdc        70           tot       1.00000           aqu        75           rhg       1.00000  
      71  rtu710                 710       1.98000      39.37284      -0.33925       0.00000        71       s39280n462w         0         0         0         2           sdc        71           tot       1.00000           aqu        71           rhg       1.00000  
      72  rtu720                 720       3.60500      39.38389      -0.34704       0.00069        72       s39280n462w         0         0         0         2           sdc        72           tot       1.00000           aqu        69           rhg       1.00000  
      73  rtu730                 730       1.28500      39.39253      -0.35537       0.00000        73       s39280n462w         0         0         0         2           sdc        73           tot       1.00000           aqu        65           rhg       1.00000  
      74  rtu740                 740       0.04000      39.39021      -0.35377       0.12500        74       s39280n462w         0         0         0         2           sdc        74           tot       1.00000           aqu        67           rhg       1.00000  
      75  rtu750                 750       4.36750      39.40252      -0.36178       0.21923        75       s39280n462w         0         0         0         2           sdc        75           tot       1.00000           aqu        63           rhg       1.00000  
      76  rtu760                 760       9.73750      39.39786      -0.35280       0.62875        76       s39280n462w         0         0         0         2           sdc        76           tot       1.00000           aqu        40           rhg       1.00000  
      77  rtu770                 770     187.47500      39.40302      -0.34054       0.24321        77       s39280n462w         0         0         0         2           sdc        77           tot       1.00000           aqu         5           rhg       1.00000  
