rout_unit.def: written by SWAT+ editor v2.3.0 on 2023-10-17 20:05 for SWAT+ rev.60.5.7
      id              name  elem_tot  elements  
       1            rtu010         1         1  

       2            rtu020         2         7        -8  
       3            rtu030         2        19       -20  
       4            rtu040         2        62       -63  
       5            rtu050         2        52       -53  
       6            rtu060         2        70       -71  
       7            rtu070         1        33  
       8            rtu080         1        36  
       9            rtu090         1        39  
      10            rtu100         2        40       -41  
      11            rtu110         2        46       -47  
      12            rtu120         1        72  
      13            rtu130         2       116      -117  
      14            rtu140         2       124      -125  
      15            rtu150         2       144      -145  
      16            rtu160         2        22       -23  
      17            rtu170         2         3        -4  
      18            rtu180         2        66       -67  
      19            rtu190         2        85       -86  
      20            rtu200         2        89       -90  
      21            rtu210         2        26       -27  
      22            rtu220         2        50       -51  
      23            rtu230         2        56       -57  
      24            rtu240         2        75       -76  
      25            rtu250         2        17       -18  
      26            rtu260         2        79       -80  
      27            rtu270         2       106      -107  
      28            rtu280         2       114      -115  
      29            rtu290         2        98       -99  
      30            rtu300         2       102      -103  
      31            rtu310         2       110      -111  
      32            rtu320         2       120      -121  
      33            rtu330         1       128  
      34            rtu340         2       131      -132  
      35            rtu350         2       135      -136  
      36            rtu360         1       143  
      37            rtu370         2       139      -140  
      38            rtu380         2        13       -14  
      39            rtu390         1        21  
      40            rtu400         2        60       -61  
      41            rtu410         2        15       -16  
      42            rtu420         2        11       -12  
      43            rtu430         2        58       -59  
      44            rtu440         2        54       -55  
      45            rtu450         1        28  
      46            rtu460         2        48       -49  
      47            rtu470         2        44       -45  
      48            rtu480         2        37       -38  
      49            rtu490         2        42       -43  
      50            rtu500         2        34       -35  
      51            rtu510         2        31       -32  
      52            rtu520         2        29       -30  
      53            rtu530         2        24       -25  
      54            rtu540         2         1        -2  
      55            rtu550         2         5        -6  
      56            rtu560         2        64       -65  
      57            rtu570         2        68       -69  
      58            rtu580         2        83       -84  
      59            rtu590         2        87       -88  
      60            rtu600         2        91       -92  
      61            rtu610         1        95  
      62            rtu620         2       112      -113  
      63            rtu630         2       108      -109  
      64            rtu640         2       104      -105  
      65            rtu650         2       100      -101  
      66            rtu660         2        96       -97  
      67            rtu670         2        77       -78  
      68            rtu680         2        81       -82  
      69            rtu690         2       137      -138  
      70            rtu700         2       141      -142  
      71            rtu710         2       133      -134  
      72            rtu720         2       129      -130  
      73            rtu730         2       122      -123  
      74            rtu740         2       126      -127  
      75            rtu750         2       118      -119  
      76            rtu760         2        73       -74  
      77            rtu770         2         9       -10  
