topography.hyd: written by SWAT+ editor v2.3.0 on 2023-10-17 20:05 for SWAT+ rev.60.5.7
name                       slp       slp_len       lat_len      dist_cha         depos  
topohru001             0.00028     121.00000     121.00000     121.00000       0.00000  
topohru002             0.00920     121.00000     121.00000     121.00000       0.00000  
topohru003             0.01480      90.00000      90.00000     121.00000       0.00000  
topohru004             0.00058     121.00000     121.00000     121.00000       0.00000  
topohru005             0.00054     121.00000     121.00000     121.00000       0.00000  
topohru006             0.03414      60.00000      60.00000     121.00000       0.00000  
topohru007             0.00956     121.00000     121.00000     121.00000       0.00000  
topohru008             0.00008     121.00000     121.00000     121.00000       0.00000  
topohru009             0.00801     121.00000     121.00000     121.00000       0.00000  
topohru010             0.00044     121.00000     121.00000     121.00000       0.00000  
topohru011             0.00002     121.00000     121.00000     121.00000       0.00000  
topohru012             0.00551     121.00000     121.00000     121.00000       0.00000  
topohru013             0.00018     121.00000     121.00000     121.00000       0.00000  
topohru014             0.00869     121.00000     121.00000     121.00000       0.00000  
topohru015             0.00497     121.00000     121.00000     121.00000       0.00000  
topohru016             0.00020     121.00000     121.00000     121.00000       0.00000  
topohru017             0.01837      90.00000      90.00000     121.00000       0.00000  
topohru018             0.00062     121.00000     121.00000     121.00000       0.00000  
topohru019             0.00100     121.00000     121.00000     121.00000       0.00000  
topohru020             0.00347     121.00000     121.00000     121.00000       0.00000  
topohru021             0.01263      90.00000      90.00000     121.00000       0.00000  
topohru022             0.00038     121.00000     121.00000     121.00000       0.00000  
topohru023             0.01706      90.00000      90.00000     121.00000       0.00000  
topohru024             0.01345      90.00000      90.00000     121.00000       0.00000  
topohru025             0.00073     121.00000     121.00000     121.00000       0.00000  
topohru026             0.00070     121.00000     121.00000     121.00000       0.00000  
topohru027             0.00696     121.00000     121.00000     121.00000       0.00000  
topohru028             0.00474     121.00000     121.00000     121.00000       0.00000  
topohru029             0.00033     121.00000     121.00000     121.00000       0.00000  
topohru030             0.05960      30.00000      30.00000     121.00000       0.00000  
topohru031             0.00026     121.00000     121.00000     121.00000       0.00000  
topohru032             0.00265     121.00000     121.00000     121.00000       0.00000  
topohru033             0.00070     121.00000     121.00000     121.00000       0.00000  
topohru034             0.00023     121.00000     121.00000     121.00000       0.00000  
topohru035             0.00004     121.00000     121.00000     121.00000       0.00000  
topohru036             0.00074     121.00000     121.00000     121.00000       0.00000  
topohru037             0.00266     121.00000     121.00000     121.00000       0.00000  
topohru038             0.00029     121.00000     121.00000     121.00000       0.00000  
topohru039             0.00073     121.00000     121.00000     121.00000       0.00000  
topohru040             0.00074     121.00000     121.00000     121.00000       0.00000  
topohru041             0.00000     121.00000     121.00000     121.00000       0.00000  
topohru042             0.00037     121.00000     121.00000     121.00000       0.00000  
topohru043             0.00405     121.00000     121.00000     121.00000       0.00000  
topohru044             0.00037     121.00000     121.00000     121.00000       0.00000  
topohru045             0.00012     121.00000     121.00000     121.00000       0.00000  
topohru046             0.03214      60.00000      60.00000     121.00000       0.00000  
topohru047             0.00071     121.00000     121.00000     121.00000       0.00000  
topohru048             0.00036     121.00000     121.00000     121.00000       0.00000  
topohru049             0.00795     121.00000     121.00000     121.00000       0.00000  
topohru050             0.00059     121.00000     121.00000     121.00000       0.00000  
topohru051             0.00623     121.00000     121.00000     121.00000       0.00000  
topohru052             0.00881     121.00000     121.00000     121.00000       0.00000  
topohru053             0.00100     121.00000     121.00000     121.00000       0.00000  
topohru054             0.01352      90.00000      90.00000     121.00000       0.00000  
topohru055             0.00081     121.00000     121.00000     121.00000       0.00000  
topohru056             0.00045     121.00000     121.00000     121.00000       0.00000  
topohru057             0.00359     121.00000     121.00000     121.00000       0.00000  
topohru058             0.01655      90.00000      90.00000     121.00000       0.00000  
topohru059             0.00063     121.00000     121.00000     121.00000       0.00000  
topohru060             0.01418      90.00000      90.00000     121.00000       0.00000  
topohru061             0.00030     121.00000     121.00000     121.00000       0.00000  
topohru062             0.00086     121.00000     121.00000     121.00000       0.00000  
topohru063             0.04115      60.00000      60.00000     121.00000       0.00000  
topohru064             0.04148      60.00000      60.00000     121.00000       0.00000  
topohru065             0.00068     121.00000     121.00000     121.00000       0.00000  
topohru066             0.00014     121.00000     121.00000     121.00000       0.00000  
topohru067             0.00566     121.00000     121.00000     121.00000       0.00000  
topohru068             0.04179      60.00000      60.00000     121.00000       0.00000  
topohru069             0.00044     121.00000     121.00000     121.00000       0.00000  
topohru070             0.03174      60.00000      60.00000     121.00000       0.00000  
topohru071             0.00057     121.00000     121.00000     121.00000       0.00000  
topohru072             0.00076     121.00000     121.00000     121.00000       0.00000  
topohru073             0.02354      90.00000      90.00000     121.00000       0.00000  
topohru074             0.00100     121.00000     121.00000     121.00000       0.00000  
topohru075             0.00026     121.00000     121.00000     121.00000       0.00000  
topohru076             0.00360     121.00000     121.00000     121.00000       0.00000  
topohru077             0.01132      90.00000      90.00000     121.00000       0.00000  
topohru078             0.00100     121.00000     121.00000     121.00000       0.00000  
topohru079             0.00011     121.00000     121.00000     121.00000       0.00000  
topohru080             0.00132     121.00000     121.00000     121.00000       0.00000  
topohru081             0.02666      90.00000      90.00000     121.00000       0.00000  
topohru082             0.00097     121.00000     121.00000     121.00000       0.00000  
topohru083             0.03035      60.00000      60.00000     121.00000       0.00000  
topohru084             0.00081     121.00000     121.00000     121.00000       0.00000  
topohru085             0.00039     121.00000     121.00000     121.00000       0.00000  
topohru086             0.00000     121.00000     121.00000     121.00000       0.00000  
topohru087             0.05052      30.00000      30.00000     121.00000       0.00000  
topohru088             0.00081     121.00000     121.00000     121.00000       0.00000  
topohru089             0.00002     121.00000     121.00000     121.00000       0.00000  
topohru090             0.00002     121.00000     121.00000     121.00000       0.00000  
topohru091             0.01208      90.00000      90.00000     121.00000       0.00000  
topohru092             0.00100     121.00000     121.00000     121.00000       0.00000  
topohru093             0.00028     121.00000     121.00000     121.00000       0.00000  
topohru094             0.03475      60.00000      60.00000     121.00000       0.00000  
topohru095             0.02760      90.00000      90.00000     121.00000       0.00000  
topohru096             0.00031     121.00000     121.00000     121.00000       0.00000  
topohru097             0.00080     121.00000     121.00000     121.00000       0.00000  
topohru098             0.00022     121.00000     121.00000     121.00000       0.00000  
topohru099             0.00262     121.00000     121.00000     121.00000       0.00000  
topohru100             0.00075     121.00000     121.00000     121.00000       0.00000  
topohru101             0.00000     121.00000     121.00000     121.00000       0.00000  
topohru102             0.00000     121.00000     121.00000     121.00000       0.00000  
topohru103             0.00000     121.00000     121.00000     121.00000       0.00000  
topohru104             0.00000     121.00000     121.00000     121.00000       0.00000  
topohru105             0.00000     121.00000     121.00000     121.00000       0.00000  
topohru106             0.00002     121.00000     121.00000     121.00000       0.00000  
topohru107             0.00460     121.00000     121.00000     121.00000       0.00000  
topohru108             0.00000     121.00000     121.00000     121.00000       0.00000  
topohru109             0.00240     121.00000     121.00000     121.00000       0.00000  
topohru110             0.00000     121.00000     121.00000     121.00000       0.00000  
topohru111             0.00000     121.00000     121.00000     121.00000       0.00000  
topohru112             0.02699      90.00000      90.00000     121.00000       0.00000  
topohru113             0.00000     121.00000     121.00000     121.00000       0.00000  
topohru114             0.00004     121.00000     121.00000     121.00000       0.00000  
topohru115             0.01036      90.00000      90.00000     121.00000       0.00000  
topohru116             0.00000     121.00000     121.00000     121.00000       0.00000  
topohru117             0.00237     121.00000     121.00000     121.00000       0.00000  
topohru118             0.00438     121.00000     121.00000     121.00000       0.00000  
topohru119             0.00070     121.00000     121.00000     121.00000       0.00000  
topohru120             0.00065     121.00000     121.00000     121.00000       0.00000  
topohru121             0.01856      90.00000      90.00000     121.00000       0.00000  
topohru122             0.00610     121.00000     121.00000     121.00000       0.00000  
topohru123             0.00092     121.00000     121.00000     121.00000       0.00000  
topohru124             0.00068     121.00000     121.00000     121.00000       0.00000  
topohru125             0.01126      90.00000      90.00000     121.00000       0.00000  
topohru126             0.01770      90.00000      90.00000     121.00000       0.00000  
topohru127             0.00100     121.00000     121.00000     121.00000       0.00000  
topohru128             0.00072     121.00000     121.00000     121.00000       0.00000  
topohru129             0.00070     121.00000     121.00000     121.00000       0.00000  
topohru130             0.00005     121.00000     121.00000     121.00000       0.00000  
topohru131             0.00009     121.00000     121.00000     121.00000       0.00000  
topohru132             0.00894     121.00000     121.00000     121.00000       0.00000  
topohru133             0.00000     121.00000     121.00000     121.00000       0.00000  
topohru134             0.00000     121.00000     121.00000     121.00000       0.00000  
topohru135             0.00000     121.00000     121.00000     121.00000       0.00000  
topohru136             0.00000     121.00000     121.00000     121.00000       0.00000  
topohru137             0.00002     121.00000     121.00000     121.00000       0.00000  
topohru138             0.00000     121.00000     121.00000     121.00000       0.00000  
topohru139             0.00000     121.00000     121.00000     121.00000       0.00000  
topohru140             0.00021     121.00000     121.00000     121.00000       0.00000  
topohru141             0.00040     121.00000     121.00000     121.00000       0.00000  
topohru142             0.03423      60.00000      60.00000     121.00000       0.00000  
topohru143             0.00000     121.00000     121.00000     121.00000       0.00000  
topohru144             0.00100     121.00000     121.00000     121.00000       0.00000  
topohru145             0.03069      60.00000      60.00000     121.00000       0.00000  
toportu010             0.00136     121.00000     121.00000     121.00000       0.00000  
toportu020             0.00058     121.00000     121.00000     121.00000       0.00000  
toportu030             0.00264     121.00000     121.00000     121.00000       0.00000  
toportu040             0.03827     121.00000     121.00000     121.00000       0.00000  
toportu050             0.00821     121.00000     121.00000     121.00000       0.00000  
toportu060             0.02366     121.00000     121.00000     121.00000       0.00000  
toportu070             0.00131     121.00000     121.00000     121.00000       0.00000  
toportu080             0.00103     121.00000     121.00000     121.00000       0.00000  
toportu090             0.00074     121.00000     121.00000     121.00000       0.00000  
toportu100             0.00098     121.00000     121.00000     121.00000       0.00000  
toportu110             0.00084     121.00000     121.00000     121.00000       0.00000  
toportu120             0.00141     121.00000     121.00000     121.00000       0.00000  
toportu130             0.00267     121.00000     121.00000     121.00000       0.00000  
toportu140             0.00086     121.00000     121.00000     121.00000       0.00000  
toportu150             0.00674     121.00000     121.00000     121.00000       0.00000  
toportu160             0.00095     121.00000     121.00000     121.00000       0.00000  
toportu170             0.00108     121.00000     121.00000     121.00000       0.00000  
toportu180             0.00024     121.00000     121.00000     121.00000       0.00000  
toportu190             0.00039     121.00000     121.00000     121.00000       0.00000  
toportu200             0.00002     121.00000     121.00000     121.00000       0.00000  
toportu210             0.00086     121.00000     121.00000     121.00000       0.00000  
toportu220             0.00065     121.00000     121.00000     121.00000       0.00000  
toportu230             0.00063     121.00000     121.00000     121.00000       0.00000  
toportu240             0.00030     121.00000     121.00000     121.00000       0.00000  
toportu250             0.00079     121.00000     121.00000     121.00000       0.00000  
toportu260             0.00014     121.00000     121.00000     121.00000       0.00000  
toportu270             0.00018     121.00000     121.00000     121.00000       0.00000  
toportu280             0.00036     121.00000     121.00000     121.00000       0.00000  
toportu290             0.00027     121.00000     121.00000     121.00000       0.00000  
toportu300             0.00000     121.00000     121.00000     121.00000       0.00000  
toportu310             0.00000     121.00000     121.00000     121.00000       0.00000  
toportu320             0.00095     121.00000     121.00000     121.00000       0.00000  
toportu330             0.00086     121.00000     121.00000     121.00000       0.00000  
toportu340             0.00013     121.00000     121.00000     121.00000       0.00000  
toportu350             0.00001     121.00000     121.00000     121.00000       0.00000  
toportu360             0.00000     121.00000     121.00000     121.00000       0.00000  
toportu370             0.00000     121.00000     121.00000     121.00000       0.00000  
toportu380             0.00021     121.00000     121.00000     121.00000       0.00000  
toportu390             0.01392     121.00000     121.00000     121.00000       0.00000  
toportu400             0.01310     121.00000     121.00000     121.00000       0.00000  
toportu410             0.00383     121.00000     121.00000     121.00000       0.00000  
toportu420             0.00696     121.00000     121.00000     121.00000       0.00000  
toportu430             0.01622     121.00000     121.00000     121.00000       0.00000  
toportu440             0.01277     121.00000     121.00000     121.00000       0.00000  
toportu450             0.00474     121.00000     121.00000     121.00000       0.00000  
toportu460             0.00688     121.00000     121.00000     121.00000       0.00000  
toportu470             0.00029     121.00000     121.00000     121.00000       0.00000  
toportu480             0.00203     121.00000     121.00000     121.00000       0.00000  
toportu490             0.00357     121.00000     121.00000     121.00000       0.00000  
toportu500             0.00017     121.00000     121.00000     121.00000       0.00000  
toportu510             0.00188     121.00000     121.00000     121.00000       0.00000  
toportu520             0.00245     121.00000     121.00000     121.00000       0.00000  
toportu530             0.01083     121.00000     121.00000     121.00000       0.00000  
toportu540             0.00771     121.00000     121.00000     121.00000       0.00000  
toportu550             0.03143     121.00000     121.00000     121.00000       0.00000  
toportu560             0.03800     121.00000     121.00000     121.00000       0.00000  
toportu570             0.03426     121.00000     121.00000     121.00000       0.00000  
toportu580             0.02484     121.00000     121.00000     121.00000       0.00000  
toportu590             0.03968     121.00000     121.00000     121.00000       0.00000  
toportu600             0.02560     121.00000     121.00000     121.00000       0.00000  
toportu610             0.02982     121.00000     121.00000     121.00000       0.00000  
toportu620             0.02234     121.00000     121.00000     121.00000       0.00000  
toportu630             0.00214     121.00000     121.00000     121.00000       0.00000  
toportu640             0.00000     121.00000     121.00000     121.00000       0.00000  
toportu650             0.00067     121.00000     121.00000     121.00000       0.00000  
toportu660             0.00077     121.00000     121.00000     121.00000       0.00000  
toportu670             0.00970     121.00000     121.00000     121.00000       0.00000  
toportu680             0.02358     121.00000     121.00000     121.00000       0.00000  
toportu690             0.00002     121.00000     121.00000     121.00000       0.00000  
toportu700             0.02215     121.00000     121.00000     121.00000       0.00000  
toportu710             0.00000     121.00000     121.00000     121.00000       0.00000  
toportu720             0.00066     121.00000     121.00000     121.00000       0.00000  
toportu730             0.00557     121.00000     121.00000     121.00000       0.00000  
toportu740             0.01457     121.00000     121.00000     121.00000       0.00000  
toportu750             0.00415     121.00000     121.00000     121.00000       0.00000  
toportu760             0.02227     121.00000     121.00000     121.00000       0.00000  
toportu770             0.00053     121.00000     121.00000     121.00000       0.00000  
